data/upstream/arpae-go/extracted/Challenge_1_Original_Dataset_2_Scenarios/Original_Dataset_Real-Time_Edition_2/Network_01R-020/scenario_11/case.raw
 0,    100, 33, 0, 0, 60.0 / Header line 1
Header line 2
Header line 3
     1,'',   138, 1, 1, 1, 1, 1.0168687, -95.064596, 1.1, 0.9, 1.1, 0.9
     2,'',   138, 1, 1, 1, 1, 1.0164575, -95.115308, 1.1, 0.9, 1.1, 0.9
     3,'',   138, 1, 1, 1, 1, 1.0141576, -98.089179, 1.1, 0.9, 1.1, 0.9
     4,'',   138, 1, 1, 1, 1, 1.0126298, -98.265127, 1.1, 0.9, 1.1, 0.9
     5,'',   138, 1, 1, 1, 1, 1.0007715, -66.128791, 1.1, 0.9, 1.1, 0.9
     6,'',   138, 1, 1, 1, 1, 1.0007435, -66.132423, 1.1, 0.9, 1.1, 0.9
     7,'',   345, 1, 1, 1, 1, 1.0327309, -93.565901, 1.1, 0.9, 1.1, 0.9
     8,'',   138, 1, 1, 1, 1, 1.0270305, -95.016154, 1.1, 0.9, 1.1, 0.9
     9,'',  13.8, 2, 1, 1, 1, 1.04, -92.689924, 1.1, 0.9, 1.1, 0.9
    10,'',   138, 1, 1, 1, 1, 1.026668, -89.777401, 1.1, 0.9, 1.1, 0.9
    11,'',   138, 1, 1, 1, 1, 1.02665, -89.779415, 1.1, 0.9, 1.1, 0.9
    12,'',   138, 1, 1, 1, 1, 1.0094104, -85.247701, 1.1, 0.9, 1.1, 0.9
    13,'',   138, 1, 1, 1, 1, 1.0091049, -85.282953, 1.1, 0.9, 1.1, 0.9
    14,'',   345, 1, 1, 1, 1, 1.03351, -76.856139, 1.1, 0.9, 1.1, 0.9
    15,'',   138, 1, 1, 1, 1, 1.0285967, -78.613188, 1.1, 0.9, 1.1, 0.9
    16,'',  13.8, 2, 1, 1, 1, 1.04, -74.016796, 1.1, 0.9, 1.1, 0.9
    17,'',  13.8, 3, 1, 1, 1, 1.04, -73.600274, 1.1, 0.9, 1.1, 0.9
    18,'',  13.8, 2, 1, 1, 1, 1.04, -75.511474, 1.1, 0.9, 1.1, 0.9
    19,'',   138, 1, 1, 1, 1, 1.0185187, -93.424276, 1.1, 0.9, 1.1, 0.9
    20,'',   138, 1, 1, 1, 1, 1.0184838, -93.428924, 1.1, 0.9, 1.1, 0.9
    21,'',   138, 1, 1, 1, 1, 1.014149, -93.394878, 1.1, 0.9, 1.1, 0.9
    22,'',   138, 1, 1, 1, 1, 1.0126432, -93.57334, 1.1, 0.9, 1.1, 0.9
    23,'',   345, 1, 1, 1, 1, 1.0312548, -80.951622, 1.1, 0.9, 1.1, 0.9
    24,'',   138, 1, 1, 1, 1, 1.0250726, -82.472767, 1.1, 0.9, 1.1, 0.9
    25,'',   138, 1, 1, 1, 1, 1.0250536, -82.475091, 1.1, 0.9, 1.1, 0.9
    26,'',   138, 1, 1, 1, 1, 1.0248951, -82.495555, 1.1, 0.9, 1.1, 0.9
    27,'',   138, 1, 1, 1, 1, 1.0001487, -86.278744, 1.1, 0.9, 1.1, 0.9
    28,'',   138, 1, 1, 1, 1, 0.99955628, -86.352212, 1.1, 0.9, 1.1, 0.9
    29,'',   138, 1, 1, 1, 1, 1.0094193, -97.792201, 1.1, 0.9, 1.1, 0.9
    30,'',   138, 1, 1, 1, 1, 1.0083595, -97.917942, 1.1, 0.9, 1.1, 0.9
    31,'',   138, 1, 1, 1, 1, 1.0165889, -93.22302, 1.1, 0.9, 1.1, 0.9
    32,'',   138, 1, 1, 1, 1, 1.0165156, -93.231766, 1.1, 0.9, 1.1, 0.9
    33,'',   138, 1, 1, 1, 1, 1.0163533, -93.063126, 1.1, 0.9, 1.1, 0.9
    34,'',   138, 1, 1, 1, 1, 1.0161706, -93.08453, 1.1, 0.9, 1.1, 0.9
    35,'',   138, 1, 1, 1, 1, 1.0182338, -92.299577, 1.1, 0.9, 1.1, 0.9
    36,'',   138, 1, 1, 1, 1, 1.0179403, -92.333681, 1.1, 0.9, 1.1, 0.9
    37,'',   138, 1, 1, 1, 1, 1.0060264, -74.006889, 1.1, 0.9, 1.1, 0.9
    38,'',   138, 1, 1, 1, 1, 1.0060252, -74.007045, 1.1, 0.9, 1.1, 0.9
    39,'',   345, 1, 1, 1, 1, 1.0349611, -80.956778, 1.1, 0.9, 1.1, 0.9
    40,'',   138, 1, 1, 1, 1, 1.0317217, -81.604593, 1.1, 0.9, 1.1, 0.9
    41,'',   138, 1, 1, 1, 1, 1.0312128, -81.667777, 1.1, 0.9, 1.1, 0.9
    42,'',   138, 1, 1, 1, 1, 1.0239178, -90.390022, 1.1, 0.9, 1.1, 0.9
    43,'',   138, 1, 1, 1, 1, 1.0238882, -90.393613, 1.1, 0.9, 1.1, 0.9
    44,'',   138, 1, 1, 1, 1, 1.0199791, -93.264757, 1.1, 0.9, 1.1, 0.9
    45,'',   138, 1, 1, 1, 1, 1.0199554, -93.267713, 1.1, 0.9, 1.1, 0.9
    46,'',   138, 1, 1, 1, 1, 1.0230722, -83.83643, 1.1, 0.9, 1.1, 0.9
    47,'',   138, 1, 1, 1, 1, 1.0227235, -83.878621, 1.1, 0.9, 1.1, 0.9
    48,'',   138, 1, 1, 1, 1, 1.0023064, -87.880244, 1.1, 0.9, 1.1, 0.9
    49,'',  13.8, 2, 1, 1, 1, 1.0040523, -87.819915, 1.1, 0.9, 1.1, 0.9
    50,'',  13.8, 2, 1, 1, 1, 1.0043345, -87.808907, 1.1, 0.9, 1.1, 0.9
    51,'',   138, 1, 1, 1, 1, 1.0023035, -87.880593, 1.1, 0.9, 1.1, 0.9
    52,'',   138, 1, 1, 1, 1, 1.0021317, -87.901228, 1.1, 0.9, 1.1, 0.9
    53,'',   138, 1, 1, 1, 1, 1.015454, -96.870852, 1.1, 0.9, 1.1, 0.9
    54,'',   138, 1, 1, 1, 1, 1.0150879, -96.910577, 1.1, 0.9, 1.1, 0.9
    55,'',   138, 1, 1, 1, 1, 1.0235786, -88.134704, 1.1, 0.9, 1.1, 0.9
    56,'',   138, 1, 1, 1, 1, 1.023562, -88.136618, 1.1, 0.9, 1.1, 0.9
    57,'',   345, 1, 1, 1, 1, 1.0219598, -82.055205, 1.1, 0.9, 1.1, 0.9
    58,'',   138, 1, 1, 1, 1, 1.0151673, -83.617624, 1.1, 0.9, 1.1, 0.9
    59,'',   138, 1, 1, 1, 1, 1.0138624, -83.78182, 1.1, 0.9, 1.1, 0.9
    60,'',   138, 1, 1, 1, 1, 1.030346, -81.883534, 1.1, 0.9, 1.1, 0.9
    61,'',   138, 1, 1, 1, 1, 1.0303444, -81.883735, 1.1, 0.9, 1.1, 0.9
    62,'',   138, 1, 1, 1, 1, 1.0153119, -97.63328, 1.1, 0.9, 1.1, 0.9
    63,'',  13.8, 2, 1, 1, 1, 1.0179609, -97.54477, 1.1, 0.9, 1.1, 0.9
    64,'',   138, 1, 1, 1, 1, 1.0149369, -97.67598, 1.1, 0.9, 1.1, 0.9
    65,'',   345, 1, 1, 1, 1, 1.0275946, -86.414712, 1.1, 0.9, 1.1, 0.9
    66,'',   138, 1, 1, 1, 1, 1.0250436, -87.409147, 1.1, 0.9, 1.1, 0.9
    67,'',   138, 1, 1, 1, 1, 1.0250092, -87.413072, 1.1, 0.9, 1.1, 0.9
    68,'',   138, 1, 1, 1, 1, 1.0092643, -84.923832, 1.1, 0.9, 1.1, 0.9
    69,'',   138, 1, 1, 1, 1, 1.009107, -84.943475, 1.1, 0.9, 1.1, 0.9
    70,'',   138, 1, 1, 1, 1, 1.0119991, -86.149142, 1.1, 0.9, 1.1, 0.9
    71,'',  13.8, 2, 1, 1, 1, 1.0126951, -86.110226, 1.1, 0.9, 1.1, 0.9
    72,'',  13.8, 2, 1, 1, 1, 1.013122, -86.085983, 1.1, 0.9, 1.1, 0.9
    73,'',  13.8, 2, 1, 1, 1, 1.0135225, -86.06802, 1.1, 0.9, 1.1, 0.9
    74,'',   138, 1, 1, 1, 1, 1.0177843, -93.58289, 1.1, 0.9, 1.1, 0.9
    75,'',   138, 1, 1, 1, 1, 1.0177295, -93.589543, 1.1, 0.9, 1.1, 0.9
    76,'',   138, 1, 1, 1, 1, 1.0045966, -72.183428, 1.1, 0.9, 1.1, 0.9
    77,'',   138, 1, 1, 1, 1, 1.0045333, -72.190571, 1.1, 0.9, 1.1, 0.9
    78,'',   138, 1, 1, 1, 1, 1.0202807, -80.58619, 1.1, 0.9, 1.1, 0.9
    79,'',   138, 1, 1, 1, 1, 1.0202773, -80.586577, 1.1, 0.9, 1.1, 0.9
    80,'',   345, 1, 1, 1, 1, 1.029896, -88.183508, 1.1, 0.9, 1.1, 0.9
    81,'',   138, 1, 1, 1, 1, 1.0258751, -89.696992, 1.1, 0.9, 1.1, 0.9
    82,'',  13.8, 2, 1, 1, 1, 1.04, -85.792375, 1.1, 0.9, 1.1, 0.9
    83,'',   138, 1, 1, 1, 1, 1.0176205, -92.122887, 1.1, 0.9, 1.1, 0.9
    84,'',   138, 1, 1, 1, 1, 1.017138, -92.18154, 1.1, 0.9, 1.1, 0.9
    85,'',   138, 1, 1, 1, 1, 1.0185073, -93.146882, 1.1, 0.9, 1.1, 0.9
    86,'',   138, 1, 1, 1, 1, 1.0183625, -93.164815, 1.1, 0.9, 1.1, 0.9
    87,'',   138, 1, 1, 1, 1, 1.0097537, -65.890354, 1.1, 0.9, 1.1, 0.9
    88,'',   138, 1, 1, 1, 1, 1.0097063, -65.896167, 1.1, 0.9, 1.1, 0.9
    89,'',   138, 1, 1, 1, 1, 1.0197936, -96.542193, 1.1, 0.9, 1.1, 0.9
    90,'',   138, 1, 1, 1, 1, 1.0197282, -96.550807, 1.1, 0.9, 1.1, 0.9
    91,'',   138, 1, 1, 1, 1, 1.0238697, -79.545623, 1.1, 0.9, 1.1, 0.9
    92,'',   138, 1, 1, 1, 1, 1.0232887, -79.618844, 1.1, 0.9, 1.1, 0.9
    93,'',   138, 1, 1, 1, 1, 1.0067512, -82.810556, 1.1, 0.9, 1.1, 0.9
    94,'',   138, 1, 1, 1, 1, 1.0066991, -82.817151, 1.1, 0.9, 1.1, 0.9
    95,'',   138, 1, 1, 1, 1, 1.0247858, -79.583442, 1.1, 0.9, 1.1, 0.9
    96,'',   138, 1, 1, 1, 1, 1.0245035, -79.617661, 1.1, 0.9, 1.1, 0.9
    97,'',   138, 1, 1, 1, 1, 0.99565746, -87.266216, 1.1, 0.9, 1.1, 0.9
    98,'',   138, 1, 1, 1, 1, 0.99529572, -87.315084, 1.1, 0.9, 1.1, 0.9
    99,'',   138, 1, 1, 1, 1, 1.0290851, -82.062916, 1.1, 0.9, 1.1, 0.9
   100,'',   138, 1, 1, 1, 1, 1.028971, -82.076511, 1.1, 0.9, 1.1, 0.9
   101,'',   138, 1, 1, 1, 1, 1.0290777, -82.063723, 1.1, 0.9, 1.1, 0.9
   102,'',   138, 1, 1, 1, 1, 1.0102026, -88.516729, 1.1, 0.9, 1.1, 0.9
   103,'',   138, 1, 1, 1, 1, 1.0098891, -88.556758, 1.1, 0.9, 1.1, 0.9
   104,'',   138, 1, 1, 1, 1, 1.0144871, -93.221494, 1.1, 0.9, 1.1, 0.9
   105,'',   138, 1, 1, 1, 1, 1.0138299, -93.300626, 1.1, 0.9, 1.1, 0.9
   106,'',   138, 1, 1, 1, 1, 1.0204549, -92.404325, 1.1, 0.9, 1.1, 0.9
   107,'',   138, 1, 1, 1, 1, 1.0203438, -92.417638, 1.1, 0.9, 1.1, 0.9
   108,'',   138, 1, 1, 1, 1, 1.0264978, -82.408196, 1.1, 0.9, 1.1, 0.9
   109,'',   138, 1, 1, 1, 1, 1.0261326, -82.447726, 1.1, 0.9, 1.1, 0.9
   110,'',   138, 1, 1, 1, 1, 0.99644381, -67.62844, 1.1, 0.9, 1.1, 0.9
   111,'',   138, 1, 1, 1, 1, 0.99593224, -67.697583, 1.1, 0.9, 1.1, 0.9
   112,'',   138, 1, 1, 1, 1, 1.0166882, -93.859975, 1.1, 0.9, 1.1, 0.9
   113,'',   138, 1, 1, 1, 1, 1.0163573, -93.897188, 1.1, 0.9, 1.1, 0.9
   114,'',   138, 1, 1, 1, 1, 1.0181801, -92.534582, 1.1, 0.9, 1.1, 0.9
   115,'',   138, 1, 1, 1, 1, 1.0181456, -92.539049, 1.1, 0.9, 1.1, 0.9
   116,'',   138, 1, 1, 1, 1, 1.0181588, -92.537359, 1.1, 0.9, 1.1, 0.9
   117,'',   138, 1, 1, 1, 1, 1.0168195, -86.139038, 1.1, 0.9, 1.1, 0.9
   118,'',   138, 1, 1, 1, 1, 1.016748, -86.147961, 1.1, 0.9, 1.1, 0.9
   119,'',   138, 1, 1, 1, 1, 1.0080718, -85.163759, 1.1, 0.9, 1.1, 0.9
   120,'',   138, 1, 1, 1, 1, 1.0078268, -85.193282, 1.1, 0.9, 1.1, 0.9
   121,'',   138, 1, 1, 1, 1, 1.0127233, -97.658656, 1.1, 0.9, 1.1, 0.9
   122,'',   138, 1, 1, 1, 1, 1.0121282, -97.737309, 1.1, 0.9, 1.1, 0.9
   123,'',   345, 1, 1, 1, 1, 1.0369778, -77.861146, 1.1, 0.9, 1.1, 0.9
   124,'',   138, 1, 1, 1, 1, 1.0353945, -78.218366, 1.1, 0.9, 1.1, 0.9
   125,'',  13.8, 2, 1, 1, 1, 1.04, -76.470171, 1.1, 0.9, 1.1, 0.9
   126,'',  13.8, 2, 1, 1, 1, 1.04, -77.11247, 1.1, 0.9, 1.1, 0.9
   127,'',  13.8, 2, 1, 1, 1, 1.04, -76.220929, 1.1, 0.9, 1.1, 0.9
   128,'',  13.8, 2, 1, 1, 1, 1.04, -77.319885, 1.1, 0.9, 1.1, 0.9
   129,'',   138, 1, 1, 1, 1, 1.005135, -85.595468, 1.1, 0.9, 1.1, 0.9
   130,'',   138, 1, 1, 1, 1, 1.0042239, -85.696532, 1.1, 0.9, 1.1, 0.9
   131,'',   138, 1, 1, 1, 1, 1.0302913, -81.839818, 1.1, 0.9, 1.1, 0.9
   132,'',   138, 1, 1, 1, 1, 1.0300753, -81.86501, 1.1, 0.9, 1.1, 0.9
   133,'',   138, 1, 1, 1, 1, 1.025093, -79.531034, 1.1, 0.9, 1.1, 0.9
   134,'',   138, 1, 1, 1, 1, 1.0247621, -79.571747, 1.1, 0.9, 1.1, 0.9
   135,'',   138, 1, 1, 1, 1, 1.0175008, -96.930981, 1.1, 0.9, 1.1, 0.9
   136,'',   138, 1, 1, 1, 1, 1.0172147, -96.968089, 1.1, 0.9, 1.1, 0.9
   137,'',   138, 1, 1, 1, 1, 1.0185034, -86.858085, 1.1, 0.9, 1.1, 0.9
   138,'',   138, 1, 1, 1, 1, 1.0179031, -86.936468, 1.1, 0.9, 1.1, 0.9
   139,'',   138, 1, 1, 1, 1, 1.0289333, -82.12057, 1.1, 0.9, 1.1, 0.9
   140,'',   138, 1, 1, 1, 1, 1.0289314, -82.120794, 1.1, 0.9, 1.1, 0.9
   141,'',   138, 1, 1, 1, 1, 1.0097216, -69.729501, 1.1, 0.9, 1.1, 0.9
   142,'',   138, 1, 1, 1, 1, 1.0082374, -69.899422, 1.1, 0.9, 1.1, 0.9
   143,'',   138, 1, 1, 1, 1, 1.0229312, -60.013914, 1.1, 0.9, 1.1, 0.9
   144,'',  13.8, 2, 1, 1, 1, 1.04, -54.685897, 1.1, 0.9, 1.1, 0.9
   145,'',  13.8, 2, 1, 1, 1, 1.04, -54.573706, 1.1, 0.9, 1.1, 0.9
   146,'',   345, 1, 1, 1, 1, 1.0266228, -90.529041, 1.1, 0.9, 1.1, 0.9
   147,'',   138, 1, 1, 1, 1, 1.0104868, -88.687864, 1.1, 0.9, 1.1, 0.9
   148,'',   138, 1, 1, 1, 1, 1.00982, -88.774681, 1.1, 0.9, 1.1, 0.9
   149,'',   138, 1, 1, 1, 1, 1.0234893, -89.993477, 1.1, 0.9, 1.1, 0.9
   150,'',   138, 1, 1, 1, 1, 1.0234772, -89.994906, 1.1, 0.9, 1.1, 0.9
   151,'',   345, 1, 1, 1, 1, 1.0365581, -81.116513, 1.1, 0.9, 1.1, 0.9
   152,'',   138, 1, 1, 1, 1, 1.035, -82.388842, 1.1, 0.9, 1.1, 0.9
   153,'',   138, 1, 1, 1, 1, 1.0343392, -82.468671, 1.1, 0.9, 1.1, 0.9
   154,'',   138, 1, 1, 1, 1, 1.0262706, -82.594657, 1.1, 0.9, 1.1, 0.9
   155,'',   138, 1, 1, 1, 1, 1.0258017, -82.650788, 1.1, 0.9, 1.1, 0.9
   156,'',   138, 1, 1, 1, 1, 1.0147604, -84.585848, 1.1, 0.9, 1.1, 0.9
   157,'',   138, 1, 1, 1, 1, 1.0138412, -84.699966, 1.1, 0.9, 1.1, 0.9
   158,'',   138, 1, 1, 1, 1, 1.012822, -97.11361, 1.1, 0.9, 1.1, 0.9
   159,'',   138, 1, 1, 1, 1, 1.012559, -97.147404, 1.1, 0.9, 1.1, 0.9
   160,'',   138, 1, 1, 1, 1, 1.0195636, -91.932396, 1.1, 0.9, 1.1, 0.9
   161,'',   138, 1, 1, 1, 1, 1.0193736, -91.956619, 1.1, 0.9, 1.1, 0.9
   162,'',   345, 1, 1, 1, 1, 1.026486, -90.598001, 1.1, 0.9, 1.1, 0.9
   163,'',   138, 1, 1, 1, 1, 1.0241344, -91.36781, 1.1, 0.9, 1.1, 0.9
   164,'',   138, 1, 1, 1, 1, 1.0229591, -91.513772, 1.1, 0.9, 1.1, 0.9
   165,'',   345, 1, 1, 1, 1, 1.0370443, -77.676945, 1.1, 0.9, 1.1, 0.9
   166,'',   138, 1, 1, 1, 1, 1.0339544, -78.595567, 1.1, 0.9, 1.1, 0.9
   167,'',  13.8, 2, 1, 1, 1, 1.04, -76.797706, 1.1, 0.9, 1.1, 0.9
   168,'',  13.8, 2, 1, 1, 1, 1.04, -76.226249, 1.1, 0.9, 1.1, 0.9
   169,'',  13.8, 2, 1, 1, 1, 1.04, -75.585857, 1.1, 0.9, 1.1, 0.9
   170,'',   138, 1, 1, 1, 1, 1.0246374, -79.659568, 1.1, 0.9, 1.1, 0.9
   171,'',   138, 1, 1, 1, 1, 1.0245283, -79.674168, 1.1, 0.9, 1.1, 0.9
   172,'',   138, 1, 1, 1, 1, 1.0177532, -85.614241, 1.1, 0.9, 1.1, 0.9
   173,'',   138, 1, 1, 1, 1, 1.0177302, -85.616777, 1.1, 0.9, 1.1, 0.9
   174,'',   138, 1, 1, 1, 1, 1.0177036, -85.620009, 1.1, 0.9, 1.1, 0.9
   175,'',   345, 1, 1, 1, 1, 1.0302989, -81.247451, 1.1, 0.9, 1.1, 0.9
   176,'',   138, 1, 1, 1, 1, 1.01197, -77.737898, 1.1, 0.9, 1.1, 0.9
   177,'',   138, 1, 1, 1, 1, 1.0118931, -77.747851, 1.1, 0.9, 1.1, 0.9
   178,'',   138, 1, 1, 1, 1, 1.0119106, -77.744457, 1.1, 0.9, 1.1, 0.9
   179,'',   138, 1, 1, 1, 1, 1.0080361, -98.159467, 1.1, 0.9, 1.1, 0.9
   180,'',   138, 1, 1, 1, 1, 1.0078786, -98.177184, 1.1, 0.9, 1.1, 0.9
   181,'',   138, 1, 1, 1, 1, 0.99424684, -86.907228, 1.1, 0.9, 1.1, 0.9
   182,'',   138, 1, 1, 1, 1, 0.9934438, -87.008246, 1.1, 0.9, 1.1, 0.9
   183,'',   138, 1, 1, 1, 1, 0.99898787, -68.097044, 1.1, 0.9, 1.1, 0.9
   184,'',   138, 1, 1, 1, 1, 0.99875274, -68.125762, 1.1, 0.9, 1.1, 0.9
   185,'',   138, 1, 1, 1, 1, 1.0164975, -80.738605, 1.1, 0.9, 1.1, 0.9
   186,'',   138, 1, 1, 1, 1, 1.0161314, -80.782194, 1.1, 0.9, 1.1, 0.9
   187,'',   138, 1, 1, 1, 1, 1.0189671, -96.647297, 1.1, 0.9, 1.1, 0.9
   188,'',   138, 1, 1, 1, 1, 1.0188504, -96.660191, 1.1, 0.9, 1.1, 0.9
   189,'',   138, 1, 1, 1, 1, 1.0169784, -93.509204, 1.1, 0.9, 1.1, 0.9
   190,'',   138, 1, 1, 1, 1, 1.0168762, -93.520112, 1.1, 0.9, 1.1, 0.9
   191,'',   138, 1, 1, 1, 1, 1.0189733, -92.1981, 1.1, 0.9, 1.1, 0.9
   192,'',   138, 1, 1, 1, 1, 1.0188385, -92.214187, 1.1, 0.9, 1.1, 0.9
   193,'',   138, 1, 1, 1, 1, 1.0171844, -93.706667, 1.1, 0.9, 1.1, 0.9
   194,'',   138, 1, 1, 1, 1, 1.0169455, -93.735124, 1.1, 0.9, 1.1, 0.9
   195,'',   345, 1, 1, 1, 1, 1.0275647, -90.599665, 1.1, 0.9, 1.1, 0.9
   196,'',   138, 1, 1, 1, 1, 1.0212009, -92.047932, 1.1, 0.9, 1.1, 0.9
   197,'',  13.8, 2, 1, 1, 1, 1.04, -89.074238, 1.1, 0.9, 1.1, 0.9
   198,'',  13.8, 2, 1, 1, 1, 1.04, -89.8466, 1.1, 0.9, 1.1, 0.9
   199,'',   138, 1, 1, 1, 1, 1.0202474, -92.153864, 1.1, 0.9, 1.1, 0.9
   200,'',   138, 1, 1, 1, 1, 1.0213046, -92.559845, 1.1, 0.9, 1.1, 0.9
...
0 / END OF BUS DATA, BEGIN LOAD DATA
2, '1', 1, 1, 1, 30.514, 8.137, 0, 0, 0, 0, 1, 1, 0
4, '1', 1, 1, 1, 94.597, 25.226, 0, 0, 0, 0, 1, 1, 0
6, '1', 1, 1, 1, 1.859, 0.496, 0, 0, 0, 0, 1, 1, 0
11, '1', 1, 1, 1, 1.224, 0.326, 0, 0, 0, 0, 1, 1, 0
13, '1', 1, 1, 1, 21.116, 5.631, 0, 0, 0, 0, 1, 1, 0
20, '1', 1, 1, 1, 2.249, 0.6, 0, 0, 0, 0, 1, 1, 0
22, '1', 1, 1, 1, 106.011, 28.27, 0, 0, 0, 0, 1, 1, 0
25, '1', 1, 1, 1, 1.23, 0.328, 0, 0, 0, 0, 1, 1, 0
26, '1', 1, 1, 1, 11.674, 3.113, 0, 0, 0, 0, 1, 1, 0
28, '1', 1, 1, 1, 33.913, 9.044, 0, 0, 0, 0, 1, 1, 0
30, '1', 1, 1, 1, 71.273, 19.006, 0, 0, 0, 0, 1, 1, 0
32, '1', 1, 1, 1, 4.835, 1.289, 0, 0, 0, 0, 1, 1, 0
34, '1', 1, 1, 1, 12.377, 3.3, 0, 0, 0, 0, 1, 1, 0
36, '1', 1, 1, 1, 21.462, 5.723, 0, 0, 0, 0, 1, 1, 0
38, '1', 1, 1, 1, 0.075, 0.02, 0, 0, 0, 0, 1, 1, 0
41, '1', 1, 1, 1, 31.251, 8.334, 0, 0, 0, 0, 1, 1, 0
43, '1', 1, 1, 1, 2.209, 0.589, 0, 0, 0, 0, 1, 1, 0
45, '1', 1, 1, 1, 1.448, 0.386, 0, 0, 0, 0, 1, 1, 0
47, '1', 1, 1, 1, 23.394, 6.238, 0, 0, 0, 0, 1, 1, 0
51, '1', 1, 1, 1, 0.175, 0.047, 0, 0, 0, 0, 1, 1, 0
52, '1', 1, 1, 1, 11.579, 3.088, 0, 0, 0, 0, 1, 1, 0
54, '1', 1, 1, 1, 24.816, 6.618, 0, 0, 0, 0, 1, 1, 0
56, '1', 1, 1, 1, 1.115, 0.297, 0, 0, 0, 0, 1, 1, 0
59, '1', 1, 1, 1, 80.086, 21.356, 0, 0, 0, 0, 1, 1, 0
61, '1', 1, 1, 1, 0.11, 0.029, 0, 0, 0, 0, 1, 1, 0
64, '1', 1, 1, 1, 24.793, 6.611, 0, 0, 0, 0, 1, 1, 0
67, '1', 1, 1, 1, 2.262, 0.603, 0, 0, 0, 0, 1, 1, 0
69, '1', 1, 1, 1, 9.141, 2.438, 0, 0, 0, 0, 1, 1, 0
75, '1', 1, 1, 1, 3.779, 1.008, 0, 0, 0, 0, 1, 1, 0
77, '1', 1, 1, 1, 4.023, 1.073, 0, 0, 0, 0, 1, 1, 0
79, '1', 1, 1, 1, 0.226, 0.06, 0, 0, 0, 0, 1, 1, 0
84, '1', 1, 1, 1, 30.402, 8.107, 0, 0, 0, 0, 1, 1, 0
86, '1', 1, 1, 1, 8.71, 2.323, 0, 0, 0, 0, 1, 1, 0
88, '1', 1, 1, 1, 3.04, 0.811, 0, 0, 0, 0, 1, 1, 0
90, '1', 1, 1, 1, 4.207, 1.122, 0, 0, 0, 0, 1, 1, 0
92, '1', 1, 1, 1, 38.644, 10.305, 0, 0, 0, 0, 1, 1, 0
94, '1', 1, 1, 1, 3.717, 0.991, 0, 0, 0, 0, 1, 1, 0
96, '1', 1, 1, 1, 20.205, 5.388, 0, 0, 0, 0, 1, 1, 0
98, '1', 1, 1, 1, 22.043, 5.878, 0, 0, 0, 0, 1, 1, 0
100, '1', 1, 1, 1, 7.286, 1.943, 0, 0, 0, 0, 1, 1, 0
101, '1', 1, 1, 1, 0.48, 0.128, 0, 0, 0, 0, 1, 1, 0
103, '1', 1, 1, 1, 19.21, 5.123, 0, 0, 0, 0, 1, 1, 0
105, '1', 1, 1, 1, 39.772, 10.606, 0, 0, 0, 0, 1, 1, 0
107, '1', 1, 1, 1, 7.924, 2.113, 0, 0, 0, 0, 1, 1, 0
109, '1', 1, 1, 1, 25.642, 6.838, 0, 0, 0, 0, 1, 1, 0
111, '1', 1, 1, 1, 33.567, 8.951, 0, 0, 0, 0, 1, 1, 0
113, '1', 1, 1, 1, 22.769, 6.072, 0, 0, 0, 0, 1, 1, 0
115, '1', 1, 1, 1, 2.506, 0.668, 0, 0, 0, 0, 1, 1, 0
116, '1', 1, 1, 1, 1.534, 0.409, 0, 0, 0, 0, 1, 1, 0
118, '1', 1, 1, 1, 4.373, 1.166, 0, 0, 0, 0, 1, 1, 0
120, '1', 1, 1, 1, 17.985, 4.796, 0, 0, 0, 0, 1, 1, 0
122, '1', 1, 1, 1, 38.045, 10.145, 0, 0, 0, 0, 1, 1, 0
130, '1', 1, 1, 1, 58.666, 15.644, 0, 0, 0, 0, 1, 1, 0
132, '1', 1, 1, 1, 13.582, 3.622, 0, 0, 0, 0, 1, 1, 0
134, '1', 1, 1, 1, 25.343, 6.758, 0, 0, 0, 0, 1, 1, 0
136, '1', 1, 1, 1, 19.076, 5.087, 0, 0, 0, 0, 1, 1, 0
138, '1', 1, 1, 1, 38.966, 10.391, 0, 0, 0, 0, 1, 1, 0
140, '1', 1, 1, 1, 0.137, 0.037, 0, 0, 0, 0, 1, 1, 0
142, '1', 1, 1, 1, 93.369, 24.898, 0, 0, 0, 0, 1, 1, 0
148, '1', 1, 1, 1, 40.936, 10.916, 0, 0, 0, 0, 1, 1, 0
150, '1', 1, 1, 1, 0.744, 0.198, 0, 0, 0, 0, 1, 1, 0
153, '1', 1, 1, 1, 50.2, 13.387, 0, 0, 0, 0, 1, 1, 0
155, '1', 1, 1, 1, 36.022, 9.606, 0, 0, 0, 0, 1, 1, 0
157, '1', 1, 1, 1, 59.923, 15.979, 0, 0, 0, 0, 1, 1, 0
159, '1', 1, 1, 1, 16.291, 4.344, 0, 0, 0, 0, 1, 1, 0
161, '1', 1, 1, 1, 12.849, 3.426, 0, 0, 0, 0, 1, 1, 0
164, '1', 1, 1, 1, 69.975, 18.66, 0, 0, 0, 0, 1, 1, 0
171, '1', 1, 1, 1, 7.354, 1.961, 0, 0, 0, 0, 1, 1, 0
173, '1', 1, 1, 1, 1.552, 0.414, 0, 0, 0, 0, 1, 1, 0
174, '1', 1, 1, 1, 3.617, 0.964, 0, 0, 0, 0, 1, 1, 0
177, '1', 1, 1, 1, 5.082, 1.355, 0, 0, 0, 0, 1, 1, 0
178, '1', 1, 1, 1, 3.943, 1.051, 0, 0, 0, 0, 1, 1, 0
180, '1', 1, 1, 1, 10.078, 2.687, 0, 0, 0, 0, 1, 1, 0
182, '1', 1, 1, 1, 49.096, 13.092, 0, 0, 0, 0, 1, 1, 0
184, '1', 1, 1, 1, 17.463, 4.657, 0, 0, 0, 0, 1, 1, 0
186, '1', 1, 1, 1, 26.949, 7.186, 0, 0, 0, 0, 1, 1, 0
188, '1', 1, 1, 1, 7.877, 2.101, 0, 0, 0, 0, 1, 1, 0
190, '1', 1, 1, 1, 6.966, 1.858, 0, 0, 0, 0, 1, 1, 0
192, '1', 1, 1, 1, 8.139, 2.17, 0, 0, 0, 0, 1, 1, 0
194, '1', 1, 1, 1, 14.206, 3.788, 0, 0, 0, 0, 1, 1, 0
199, '1', 1, 1, 1, 61.593, 16.425, 0, 0, 0, 0, 1, 1, 0
201, '1', 1, 1, 1, 6.337, 1.69, 0, 0, 0, 0, 1, 1, 0
203, '1', 1, 1, 1, 2.321, 0.619, 0, 0, 0, 0, 1, 1, 0
204, '1', 1, 1, 1, 22.609, 6.029, 0, 0, 0, 0, 1, 1, 0
206, '1', 1, 1, 1, 1.49, 0.397, 0, 0, 0, 0, 1, 1, 0
207, '1', 1, 1, 1, 11.175, 2.98, 0, 0, 0, 0, 1, 1, 0
209, '1', 1, 1, 1, 46.513, 12.404, 0, 0, 0, 0, 1, 1, 0
211, '1', 1, 1, 1, 18.472, 4.926, 0, 0, 0, 0, 1, 1, 0
213, '1', 1, 1, 1, 48.262, 12.87, 0, 0, 0, 0, 1, 1, 0
215, '1', 1, 1, 1, 41.824, 11.153, 0, 0, 0, 0, 1, 1, 0
217, '1', 1, 1, 1, 31.311, 8.35, 0, 0, 0, 0, 1, 1, 0
219, '1', 1, 1, 1, 0.165, 0.044, 0, 0, 0, 0, 1, 1, 0
227, '1', 1, 1, 1, 3.223, 0.86, 0, 0, 0, 0, 1, 1, 0
229, '1', 1, 1, 1, 32.144, 8.572, 0, 0, 0, 0, 1, 1, 0
234, '1', 1, 1, 1, 42.75, 11.4, 0, 0, 0, 0, 1, 1, 0
237, '1', 1, 1, 1, 1.343, 0.358, 0, 0, 0, 0, 1, 1, 0
239, '1', 1, 1, 1, 21.088, 5.624, 0, 0, 0, 0, 1, 1, 0
241, '1', 1, 1, 1, 9.773, 2.606, 0, 0, 0, 0, 1, 1, 0
243, '1', 1, 1, 1, 53.089, 14.157, 0, 0, 0, 0, 1, 1, 0
245, '1', 1, 1, 1, 5.859, 1.562, 0, 0, 0, 0, 1, 1, 0
252, '1', 1, 1, 1, 67.441, 17.984, 0, 0, 0, 0, 1, 1, 0
259, '1', 1, 1, 1, 4.637, 1.236, 0, 0, 0, 0, 1, 1, 0
261, '1', 1, 1, 1, 11.103, 2.961, 0, 0, 0, 0, 1, 1, 0
266, '1', 1, 1, 1, 44.046, 11.746, 0, 0, 0, 0, 1, 1, 0
268, '1', 1, 1, 1, 57.998, 15.466, 0, 0, 0, 0, 1, 1, 0
270, '1', 1, 1, 1, 3.367, 0.898, 0, 0, 0, 0, 1, 1, 0
273, '1', 1, 1, 1, 4.699, 1.253, 0, 0, 0, 0, 1, 1, 0
277, '1', 1, 1, 1, 0.289, 0.077, 0, 0, 0, 0, 1, 1, 0
278, '1', 1, 1, 1, 4.113, 1.097, 0, 0, 0, 0, 1, 1, 0
280, '1', 1, 1, 1, 9.628, 2.568, 0, 0, 0, 0, 1, 1, 0
282, '1', 1, 1, 1, 69.71, 18.589, 0, 0, 0, 0, 1, 1, 0
284, '1', 1, 1, 1, 16.164, 4.31, 0, 0, 0, 0, 1, 1, 0
286, '1', 1, 1, 1, 4.913, 1.31, 0, 0, 0, 0, 1, 1, 0
288, '1', 1, 1, 1, 41.426, 11.047, 0, 0, 0, 0, 1, 1, 0
290, '1', 1, 1, 1, 2.193, 0.585, 0, 0, 0, 0, 1, 1, 0
292, '1', 1, 1, 1, 5.43, 1.448, 0, 0, 0, 0, 1, 1, 0
294, '1', 1, 1, 1, 12.677, 3.38, 0, 0, 0, 0, 1, 1, 0
296, '1', 1, 1, 1, 4.197, 1.119, 0, 0, 0, 0, 1, 1, 0
299, '1', 1, 1, 1, 7.212, 1.923, 0, 0, 0, 0, 1, 1, 0
303, '1', 1, 1, 1, 50.206, 13.388, 0, 0, 0, 0, 1, 1, 0
307, '1', 1, 1, 1, 43.211, 11.523, 0, 0, 0, 0, 1, 1, 0
309, '1', 1, 1, 1, 4.471, 1.192, 0, 0, 0, 0, 1, 1, 0
311, '1', 1, 1, 1, 26.047, 6.946, 0, 0, 0, 0, 1, 1, 0
313, '1', 1, 1, 1, 6.158, 1.642, 0, 0, 0, 0, 1, 1, 0
315, '1', 1, 1, 1, 0.23, 0.061, 0, 0, 0, 0, 1, 1, 0
317, '1', 1, 1, 1, 2.172, 0.579, 0, 0, 0, 0, 1, 1, 0
321, '1', 1, 1, 1, 107.24, 28.598, 0, 0, 0, 0, 1, 1, 0
323, '1', 1, 1, 1, 25.724, 6.86, 0, 0, 0, 0, 1, 1, 0
325, '1', 1, 1, 1, 58.791, 15.678, 0, 0, 0, 0, 1, 1, 0
327, '1', 1, 1, 1, 86.313, 23.017, 0, 0, 0, 0, 1, 1, 0
329, '1', 1, 1, 1, 15.462, 4.123, 0, 0, 0, 0, 1, 1, 0
331, '1', 1, 1, 1, 30.811, 8.216, 0, 0, 0, 0, 1, 1, 0
334, '1', 1, 1, 1, 0.27, 0.072, 0, 0, 0, 0, 1, 1, 0
335, '1', 1, 1, 1, 0.449, 0.12, 0, 0, 0, 0, 1, 1, 0
337, '1', 1, 1, 1, 3.283, 0.875, 0, 0, 0, 0, 1, 1, 0
339, '1', 1, 1, 1, 43.463, 11.59, 0, 0, 0, 0, 1, 1, 0
341, '1', 1, 1, 1, 13.764, 3.67, 0, 0, 0, 0, 1, 1, 0
343, '1', 1, 1, 1, 1.243, 0.332, 0, 0, 0, 0, 1, 1, 0
344, '1', 1, 1, 1, 1.203, 0.321, 0, 0, 0, 0, 1, 1, 0
346, '1', 1, 1, 1, 33.923, 9.046, 0, 0, 0, 0, 1, 1, 0
348, '1', 1, 1, 1, 49.095, 13.092, 0, 0, 0, 0, 1, 1, 0
355, '1', 1, 1, 1, 14.234, 3.796, 0, 0, 0, 0, 1, 1, 0
357, '1', 1, 1, 1, 31.671, 8.445, 0, 0, 0, 0, 1, 1, 0
359, '1', 1, 1, 1, 7.221, 1.926, 0, 0, 0, 0, 1, 1, 0
364, '1', 1, 1, 1, 16.403, 4.374, 0, 0, 0, 0, 1, 1, 0
366, '1', 1, 1, 1, 40.273, 10.74, 0, 0, 0, 0, 1, 1, 0
368, '1', 1, 1, 1, 6.807, 1.815, 0, 0, 0, 0, 1, 1, 0
370, '1', 1, 1, 1, 21.159, 5.642, 0, 0, 0, 0, 1, 1, 0
373, '1', 1, 1, 1, 20.558, 5.482, 0, 0, 0, 0, 1, 1, 0
375, '1', 1, 1, 1, 17.656, 4.708, 0, 0, 0, 0, 1, 1, 0
377, '1', 1, 1, 1, 48.71, 12.989, 0, 0, 0, 0, 1, 1, 0
379, '1', 1, 1, 1, 7.529, 2.008, 0, 0, 0, 0, 1, 1, 0
381, '1', 1, 1, 1, 5.46, 1.456, 0, 0, 0, 0, 1, 1, 0
383, '1', 1, 1, 1, 16.138, 4.303, 0, 0, 0, 0, 1, 1, 0
385, '1', 1, 1, 1, 20.81, 5.549, 0, 0, 0, 0, 1, 1, 0
397, '1', 1, 1, 1, 23.744, 6.332, 0, 0, 0, 0, 1, 1, 0
398, '1', 1, 1, 1, 9.964, 2.657, 0, 0, 0, 0, 1, 1, 0
400, '1', 1, 1, 1, 11.399, 3.04, 0, 0, 0, 0, 1, 1, 0
402, '1', 1, 1, 1, 51.126, 13.634, 0, 0, 0, 0, 1, 1, 0
404, '1', 1, 1, 1, 9.788, 2.61, 0, 0, 0, 0, 1, 1, 0
406, '1', 1, 1, 1, 3.038, 0.81, 0, 0, 0, 0, 1, 1, 0
416, '1', 1, 1, 1, 4.322, 1.153, 0, 0, 0, 0, 1, 1, 0
418, '1', 1, 1, 1, 36.149, 9.64, 0, 0, 0, 0, 1, 1, 0
420, '1', 1, 1, 1, 2.587, 0.69, 0, 0, 0, 0, 1, 1, 0
422, '1', 1, 1, 1, 35.061, 9.35, 0, 0, 0, 0, 1, 1, 0
424, '1', 1, 1, 1, 90.911, 24.243, 0, 0, 0, 0, 1, 1, 0
427, '1', 1, 1, 1, 7.146, 1.905, 0, 0, 0, 0, 1, 1, 0
446, '1', 1, 1, 1, 50.394, 13.438, 0, 0, 0, 0, 1, 1, 0
448, '1', 1, 1, 1, 31.018, 8.271, 0, 0, 0, 0, 1, 1, 0
450, '1', 1, 1, 1, 0.605, 0.161, 0, 0, 0, 0, 1, 1, 0
451, '1', 1, 1, 1, 1.192, 0.318, 0, 0, 0, 0, 1, 1, 0
452, '1', 1, 1, 1, 6.46, 1.723, 0, 0, 0, 0, 1, 1, 0
459, '1', 1, 1, 1, 43.095, 11.492, 0, 0, 0, 0, 1, 1, 0
460, '1', 1, 1, 1, 14.196, 3.786, 0, 0, 0, 0, 1, 1, 0
461, '1', 1, 1, 1, 52.12, 13.899, 0, 0, 0, 0, 1, 1, 0
465, '1', 1, 1, 1, 6.748, 1.799, 0, 0, 0, 0, 1, 1, 0
466, '1', 1, 1, 1, 23.355, 6.228, 0, 0, 0, 0, 1, 1, 0
467, '1', 1, 1, 1, 0.48, 0.128, 0, 0, 0, 0, 1, 1, 0
468, '1', 1, 1, 1, 2.236, 0.596, 0, 0, 0, 0, 1, 1, 0
469, '1', 1, 1, 1, 73.037, 19.477, 0, 0, 0, 0, 1, 1, 0
470, '1', 1, 1, 1, 25.291, 6.744, 0, 0, 0, 0, 1, 1, 0
472, '1', 1, 1, 1, 26.79, 7.144, 0, 0, 0, 0, 1, 1, 0
473, '1', 1, 1, 1, 0.594, 0.158, 0, 0, 0, 0, 1, 1, 0
474, '1', 1, 1, 1, 95.023, 25.339, 0, 0, 0, 0, 1, 1, 0
475, '1', 1, 1, 1, 0.115, 0.031, 0, 0, 0, 0, 1, 1, 0
476, '1', 1, 1, 1, 42.673, 11.379, 0, 0, 0, 0, 1, 1, 0
477, '1', 1, 1, 1, 16.883, 4.503, 0, 0, 0, 0, 1, 1, 0
478, '1', 1, 1, 1, 5.299, 1.413, 0, 0, 0, 0, 1, 1, 0
485, '1', 1, 1, 1, 19.876, 5.3, 0, 0, 0, 0, 1, 1, 0
486, '1', 1, 1, 1, 48.861, 13.029, 0, 0, 0, 0, 1, 1, 0
487, '1', 1, 1, 1, 6.933, 1.849, 0, 0, 0, 0, 1, 1, 0
488, '1', 1, 1, 1, 55.629, 14.834, 0, 0, 0, 0, 1, 1, 0
489, '1', 1, 1, 1, 1.823, 0.486, 0, 0, 0, 0, 1, 1, 0
490, '1', 1, 1, 1, 17.716, 4.724, 0, 0, 0, 0, 1, 1, 0
491, '1', 1, 1, 1, 85.216, 22.724, 0, 0, 0, 0, 1, 1, 0
492, '1', 1, 1, 1, 34.456, 9.188, 0, 0, 0, 0, 1, 1, 0
493, '1', 1, 1, 1, 2.342, 0.625, 0, 0, 0, 0, 1, 1, 0
495, '1', 1, 1, 1, 40.511, 10.803, 0, 0, 0, 0, 1, 1, 0
499, '1', 1, 1, 1, 87.209, 23.256, 0, 0, 0, 0, 1, 1, 0
500, '1', 1, 1, 1, 11.6, 3.094, 0, 0, 0, 0, 1, 1, 0
0 / END OF LOAD DATA, BEGIN FIXED SHUNT DATA
0 / END OF FIXED SHUNT DATA, BEGIN GENERATOR DATA
9, '1', 242.0918, -94.16, 359.66, -94.16, 1.04, 0, 0, 0, 1.0, 0, 0, 1, 1, 1, 771.8, 231.54, 1, 1, 0, 1, 0, 1, 0, 1, 0, 1
16, '1', 444.45, -36.44, 163.56, -36.44, 1.04, 0, 0, 0, 1.0, 0, 0, 1, 1, 1, 444.45, 133.33, 1, 1, 0, 1, 0, 1, 0, 1, 0, 1
17, '1', 851.22095, -72.89, 327.12, -72.89, 1.04, 0, 0, 0, 1.0, 0, 0, 1, 1, 1, 888.9, 266.67, 1, 1, 0, 1, 0, 1, 0, 1, 0, 1
18, '1', 49.655661, -12.92, 58, -12.92, 1.04, 0, 0, 0, 1.0, 0, 0, 1, 1, 1, 157.6, 47.28, 1, 1, 0, 1, 0, 1, 0, 1, 0, 1
49, '1', 0.40959651, -0.16, 0.61, -0.16, 1.0047463, 0, 0, 0, 1.0, 0, 0, 1, 1, 1, 1.3, 0.39, 1, 1, 0, 1, 0, 1, 0, 1, 0, 1
50, '1', 0.81919301, -0.32, 1.21, -0.32, 1.0050281, 0, 0, 0, 1.0, 0, 0, 1, 1, 1, 2.6, 0.78, 1, 1, 0, 1, 0, 1, 0, 1, 0, 1
63, '1', 1.0082376, -0.36, 1.63, -0.36, 1.0192278, 0, 0, 0, 1.0, 0, 0, 1, 1, 1, 3.2, 0.96, 1, 1, 0, 1, 0, 1, 0, 1, 0, 1
71, '1', 1.592, -0.2, 1.54, -0.2, 1.0128253, 0, 0, 0, 1.0, 0, 0, 1, 1, 1, 1.592, 0, 1, 1, 0, 1, 0, 1, 0, 1, 0, 1
72, '1', 0.796, -0.1, 0.77, -0.1, 1.0132521, 0, 0, 0, 1.0, 0, 0, 1, 1, 1, 0.796, 0, 1, 1, 0, 1, 0, 1, 0, 1, 0, 1
73, '1', 0.557, -0.07, 0.54, -0.07, 1.0136526, 0, 0, 0, 1.0, 0, 0, 1, 1, 1, 0.557, 0, 1, 1, 0, 1, 0, 1, 0, 1, 0, 1
82, '1', 144.03, -17.73, 138.97, -17.73, 1.04, 0, 0, 0, 1.0, 0, 0, 1, 1, 1, 144.03, 0, 1, 1, 0, 1, 0, 1, 0, 1, 0, 1
125, '1', 64.473, -7.94, 62.21, -7.94, 1.04, 0, 0, 0, 1.0, 0, 0, 1, 1, 1, 64.473, 0, 1, 1, 0, 1, 0, 1, 0, 1, 0, 1
126, '1', 64.473, -7.94, 62.21, -7.94, 1.04, 0, 0, 0, 1.0, 0, 0, 1, 1, 1, 64.473, 0, 1, 1, 0, 1, 0, 1, 0, 1, 0, 1
127, '1', 64.473, -7.94, 62.21, -7.94, 1.04, 0, 0, 0, 1.0, 0, 0, 1, 1, 1, 64.473, 0, 1, 1, 0, 1, 0, 1, 0, 1, 0, 1
128, '1', 64.473, -7.94, 62.21, -7.94, 1.04, 0, 0, 0, 1.0, 0, 0, 1, 1, 1, 64.473, 0, 1, 1, 0, 1, 0, 1, 0, 1, 0, 1
144, '1', 602.55, -49.41, 221.74, -49.41, 1.04, 0, 0, 0, 1.0, 0, 0, 1, 1, 1, 602.55, 180.76, 1, 1, 0, 1, 0, 1, 0, 1, 0, 1
145, '1', 602.55, -49.41, 221.74, -49.41, 1.04, 0, 0, 0, 1.0, 0, 0, 1, 1, 1, 602.55, 180.76, 1, 1, 0, 1, 0, 1, 0, 1, 0, 1
167, '1', 77.01, -9.48, 74.3, -9.48, 1.04, 0, 0, 0, 1.0, 0, 0, 1, 1, 1, 77.01, 0, 1, 1, 0, 1, 0, 1, 0, 1, 0, 1
168, '1', 77.01, -9.48, 74.3, -9.48, 1.04, 0, 0, 0, 1.0, 0, 0, 1, 1, 1, 77.01, 0, 1, 1, 0, 1, 0, 1, 0, 1, 0, 1
169, '1', 154.019, -18.96, 148.61, -18.96, 1.04, 0, 0, 0, 1.0, 0, 0, 1, 1, 1, 154.019, 0, 1, 1, 0, 1, 0, 1, 0, 1, 0, 1
197, '1', 92.505725, -35.82, 136.82, -35.82, 1.04, 0, 0, 0, 1.0, 0, 0, 1, 1, 1, 293.6, 88.08, 1, 1, 0, 1, 0, 1, 0, 1, 0, 1
198, '1', 65.314839, -25.29, 96.6, -25.29, 1.04, 0, 0, 0, 1.0, 0, 0, 1, 1, 1, 207.3, 62.19, 1, 1, 0, 1, 0, 1, 0, 1, 0, 1
222, '1', 2.07, -0.25, 2, -0.25, 1.039146, 0, 0, 0, 1.0, 0, 0, 1, 1, 1, 2.07, 0, 1, 1, 0, 1, 0, 1, 0, 1, 0, 1
223, '1', 7.164, -0.88, 6.91, -0.88, 1.04, 0, 0, 0, 1.0, 0, 0, 1, 1, 1, 7.164, 0, 1, 1, 0, 1, 0, 1, 0, 1, 0, 1
224, '1', 203.449, -25.05, 196.3, -25.05, 1.04, 0, 0, 0, 1.0, 0, 0, 1, 1, 1, 203.449, 0, 1, 1, 0, 1, 0, 1, 0, 1, 0, 1
225, '1', 204.881, -25.23, 197.68, -25.23, 1.04, 0, 0, 0, 1.0, 0, 0, 1, 1, 1, 204.881, 0, 1, 1, 0, 1, 0, 1, 0, 1, 0, 1
231, '1', 0.91371528, -0.35, 1.35, -0.35, 1.0108111, 0, 0, 0, 1.0, 0, 0, 1, 1, 1, 2.9, 0.87, 1, 1, 0, 1, 0, 1, 0, 1, 0, 1
248, '1', 0, -2.955, 67.8, -14.79, 1.0380803, 0, 0, 0, 1.0, 0, 0, 1, 0, 1, 133.2, 39.96, 1, 1, 0, 1, 0, 1, 0, 1, 0, 1
249, '1', 0, 0, 67.8, -14.79, 1.0380803, 0, 0, 0, 1.0, 0, 0, 1, 0, 1, 133.2, 39.96, 1, 1, 0, 1, 0, 1, 0, 1, 0, 1
250, '1', 0, 0, 271.2, -59.14, 1.0380803, 0, 0, 0, 1.0, 0, 0, 1, 0, 1, 532.8, 159.84, 1, 1, 0, 1, 0, 1, 0, 1, 0, 1
254, '1', 1.2918044, -0.5, 1.91, -0.5, 1.0136566, 0, 0, 0, 1.0, 0, 0, 1, 1, 1, 4.1, 1.23, 1, 1, 0, 1, 0, 1, 0, 1, 0, 1
255, '1', 1.039745, -0.4, 1.54, -0.4, 1.0127095, 0, 0, 0, 1.0, 0, 0, 1, 1, 1, 3.3, 0.99, 1, 1, 0, 1, 0, 1, 0, 1, 0, 1
256, '1', 0.91371528, -0.35, 1.35, -0.35, 1.0136404, 0, 0, 0, 1.0, 0, 0, 1, 1, 1, 2.9, 0.87, 1, 1, 0, 1, 0, 1, 0, 1, 0, 1
257, '1', 1.7013996, -0.66, 2.52, -0.66, 1.0131257, 0, 0, 0, 1.0, 0, 0, 1, 1, 1, 5.4, 1.62, 1, 1, 0, 1, 0, 1, 0, 1, 0, 1
258, '1', 0.34658166, -0.13, 0.51, -0.13, 1.012408, 0, 0, 0, 1.0, 0, 0, 1, 1, 1, 1.1, 0.33, 1, 1, 0, 1, 0, 1, 0, 1, 0, 1
264, '1', 12.350901, -4.35, 19.95, -4.35, 1.0390611, 0, 0, 0, 1.0, 0, 0, 1, 1, 1, 39.2, 11.76, 1, 1, 0, 1, 0, 1, 0, 1, 0, 1
265, '1', 3.3397843, -1.18, 5.4, -1.18, 1.0311837, 0, 0, 0, 1.0, 0, 0, 1, 1, 1, 10.6, 3.18, 1, 1, 0, 1, 0, 1, 0, 1, 0, 1
275, '1', 0, 15.421, 51.51, -11.23, 1.0229727, 0, 0, 0, 1.0, 0, 0, 1, 0, 1, 101.2, 30.36, 1, 1, 0, 1, 0, 1, 0, 1, 0, 1
301, '1', 0.91371528, -0.35, 1.35, -0.35, 1.013768, 0, 0, 0, 1.0, 0, 0, 1, 1, 1, 2.9, 0.87, 1, 1, 0, 1, 0, 1, 0, 1, 0, 1
302, '1', 0.91371528, -0.35, 1.35, -0.35, 1.0137396, 0, 0, 0, 1.0, 0, 0, 1, 1, 1, 2.9, 0.87, 1, 1, 0, 1, 0, 1, 0, 1, 0, 1
305, '1', 0.398, -0.05, 0.38, -0.05, 1.0081037, 0, 0, 0, 1.0, 0, 0, 1, 1, 1, 0.398, 0, 1, 1, 0, 1, 0, 1, 0, 1, 0, 1
306, '1', 0.955, -0.12, 0.92, -0.12, 1.008331, 0, 0, 0, 1.0, 0, 0, 1, 1, 1, 0.955, 0, 1, 1, 0, 1, 0, 1, 0, 1, 0, 1
319, '1', 16.835, -2.07, 16.24, -2.07, 1.04, 0, 0, 0, 1.0, 0, 0, 1, 1, 1, 16.835, 0, 1, 1, 0, 1, 0, 1, 0, 1, 0, 1
350, '1', 5.97, -0.74, 5.76, -0.74, 1.0341242, 0, 0, 0, 1.0, 0, 0, 1, 1, 1, 5.97, 0, 1, 1, 0, 1, 0, 1, 0, 1, 0, 1
351, '1', 2.467, -0.3, 2.38, -0.3, 1.0319072, 0, 0, 0, 1.0, 0, 0, 1, 1, 1, 2.467, 0, 1, 1, 0, 1, 0, 1, 0, 1, 0, 1
352, '1', 5.731, -0.71, 5.53, -0.71, 1.0340062, 0, 0, 0, 1.0, 0, 0, 1, 1, 1, 5.731, 0, 1, 1, 0, 1, 0, 1, 0, 1, 0, 1
353, '1', 29.451, -3.63, 28.42, -3.63, 1.04, 0, 0, 0, 1.0, 0, 0, 1, 1, 1, 29.451, 0, 1, 1, 0, 1, 0, 1, 0, 1, 0, 1
361, '1', 0.50411878, -0.18, 0.81, -0.18, 1.024243, 0, 0, 0, 1.0, 0, 0, 1, 1, 1, 1.6, 0.48, 1, 1, 0, 1, 0, 1, 0, 1, 0, 1
362, '1', 3.4658139, -1.22, 5.6, -1.22, 1.028046, 0, 0, 0, 1.0, 0, 0, 1, 1, 1, 11, 3.3, 1, 1, 0, 1, 0, 1, 0, 1, 0, 1
363, '1', 1.0082376, -0.36, 1.63, -0.36, 1.023379, 0, 0, 0, 1.0, 0, 0, 1, 1, 1, 3.2, 0.96, 1, 1, 0, 1, 0, 1, 0, 1, 0, 1
388, '1', 3.1507399, -1.11, 5.09, -1.11, 1.0330585, 0, 0, 0, 1.0, 0, 0, 1, 1, 1, 10, 3, 1, 1, 0, 1, 0, 1, 0, 1, 0, 1
389, '1', 0, 0, 88.23, -19.24, 1.0309581, 0, 0, 0, 1.0, 0, 0, 1, 0, 1, 173.333, 52, 1, 1, 0, 1, 0, 1, 0, 1, 0, 1
390, '1', 0, 0, 88.23, -19.24, 1.0309581, 0, 0, 0, 1.0, 0, 0, 1, 0, 1, 173.333, 52, 1, 1, 0, 1, 0, 1, 0, 1, 0, 1
391, '1', 0, 0, 88.23, -19.24, 1.0309581, 0, 0, 0, 1.0, 0, 0, 1, 0, 1, 173.333, 52, 1, 1, 0, 1, 0, 1, 0, 1, 0, 1
392, '1', 0, 0, 59.25, -12.92, 1.0309581, 0, 0, 0, 1.0, 0, 0, 1, 0, 1, 116.4, 34.92, 1, 1, 0, 1, 0, 1, 0, 1, 0, 1
393, '1', 0, 0, 59.25, -12.92, 1.0309581, 0, 0, 0, 1.0, 0, 0, 1, 0, 1, 116.4, 34.92, 1, 1, 0, 1, 0, 1, 0, 1, 0, 1
394, '1', 0, 0, 59.25, -12.92, 1.0309581, 0, 0, 0, 1.0, 0, 0, 1, 0, 1, 116.4, 34.92, 1, 1, 0, 1, 0, 1, 0, 1, 0, 1
395, '1', 0, 0, 59.25, -12.92, 1.0309581, 0, 0, 0, 1.0, 0, 0, 1, 0, 1, 116.4, 34.92, 1, 1, 0, 1, 0, 1, 0, 1, 0, 1
396, '1', 0, 0, 59.25, -12.92, 1.0309581, 0, 0, 0, 1.0, 0, 0, 1, 0, 1, 116.4, 34.92, 1, 1, 0, 1, 0, 1, 0, 1, 0, 1
409, '1', 0, 0.945, 50.9, -11.1, 1.0305036, 0, 0, 0, 1.0, 0, 0, 1, 0, 1, 100, 30, 1, 1, 0, 1, 0, 1, 0, 1, 0, 1
410, '1', 0, 0, 69.71, -15.2, 1.0305036, 0, 0, 0, 1.0, 0, 0, 1, 0, 1, 136.95, 41.08, 1, 1, 0, 1, 0, 1, 0, 1, 0, 1
411, '1', 0, 3.371, 69.71, -15.2, 1.0305036, 0, 0, 0, 1.0, 0, 0, 1, 0, 1, 136.95, 41.08, 1, 1, 0, 1, 0, 1, 0, 1, 0, 1
412, '1', 0, 0, 69.71, -15.2, 1.0305036, 0, 0, 0, 1.0, 0, 0, 1, 0, 1, 136.95, 41.08, 1, 1, 0, 1, 0, 1, 0, 1, 0, 1
413, '1', 0, 2.35, 69.71, -15.2, 1.0305036, 0, 0, 0, 1.0, 0, 0, 1, 0, 1, 136.95, 41.08, 1, 1, 0, 1, 0, 1, 0, 1, 0, 1
414, '1', 0, 0.794, 56.55, -12.33, 1.0305036, 0, 0, 0, 1.0, 0, 0, 1, 0, 1, 111.1, 33.33, 1, 1, 0, 1, 0, 1, 0, 1, 0, 1
430, '1', 0.398, -0.05, 0.38, -0.05, 1.0382823, 0, 0, 0, 1.0, 0, 0, 1, 1, 1, 0.398, 0, 1, 1, 0, 1, 0, 1, 0, 1, 0, 1
431, '1', 1.313, -0.16, 1.27, -0.16, 1.0384957, 0, 0, 0, 1.0, 0, 0, 1, 1, 1, 1.313, 0, 1, 1, 0, 1, 0, 1, 0, 1, 0, 1
432, '1', 0.478, -0.06, 0.46, -0.06, 1.038187, 0, 0, 0, 1.0, 0, 0, 1, 1, 1, 0.478, 0, 1, 1, 0, 1, 0, 1, 0, 1, 0, 1
433, '1', 2.666, -0.33, 2.57, -0.33, 1.04, 0, 0, 0, 1.0, 0, 0, 1, 1, 1, 2.666, 0, 1, 1, 0, 1, 0, 1, 0, 1, 0, 1
434, '1', 1.711, -0.21, 1.65, -0.21, 1.0384099, 0, 0, 0, 1.0, 0, 0, 1, 1, 1, 1.711, 0, 1, 1, 0, 1, 0, 1, 0, 1, 0, 1
435, '1', 78.403, -9.65, 75.65, -9.65, 1.04, 0, 0, 0, 1.0, 0, 0, 1, 1, 1, 78.403, 0, 1, 1, 0, 1, 0, 1, 0, 1, 0, 1
436, '1', 78.403, -9.65, 75.65, -9.65, 1.04, 0, 0, 0, 1.0, 0, 0, 1, 1, 1, 78.403, 0, 1, 1, 0, 1, 0, 1, 0, 1, 0, 1
437, '1', 78.403, -9.65, 75.65, -9.65, 1.04, 0, 0, 0, 1.0, 0, 0, 1, 1, 1, 78.403, 0, 1, 1, 0, 1, 0, 1, 0, 1, 0, 1
438, '1', 78.403, -9.65, 75.65, -9.65, 1.04, 0, 0, 0, 1.0, 0, 0, 1, 1, 1, 78.403, 0, 1, 1, 0, 1, 0, 1, 0, 1, 0, 1
439, '1', 78.403, -9.65, 75.65, -9.65, 1.04, 0, 0, 0, 1.0, 0, 0, 1, 1, 1, 78.403, 0, 1, 1, 0, 1, 0, 1, 0, 1, 0, 1
442, '1', 0, 0, 54.97, -11.99, 1.0244159, 0, 0, 0, 1.0, 0, 0, 1, 0, 1, 108, 32.4, 1, 1, 0, 1, 0, 1, 0, 1, 0, 1
443, '1', 0, 30.87, 89.07, -19.43, 1.0244159, 0, 0, 0, 1.0, 0, 0, 1, 0, 1, 175, 52.5, 1, 1, 0, 1, 0, 1, 0, 1, 0, 1
444, '1', 1.039745, -0.37, 1.68, -0.37, 1.0258921, 0, 0, 0, 1.0, 0, 0, 1, 1, 1, 3.3, 0.99, 1, 1, 0, 1, 0, 1, 0, 1, 0, 1
455, '1', 0, 43.113, 113.42, -24.73, 1.0269943, 0, 0, 0, 1.0, 0, 0, 1, 0, 1, 222.833, 66.85, 1, 1, 0, 1, 0, 1, 0, 1, 0, 1
456, '1', 0, 0, 226.84, -49.47, 1.0269943, 0, 0, 0, 1.0, 0, 0, 1, 0, 1, 445.667, 133.7, 1, 1, 0, 1, 0, 1, 0, 1, 0, 1
458, '1', 0, 0, 0, 0, 1.0245687, 0, 0, 0, 1.0, 0, 0, 1, 0, 1, 109.6, 32.88, 1, 1, 0, 1, 0, 1, 0, 1, 0, 1
463, '1', 2.2685328, -0.88, 3.36, -0.88, 1.0327755, 0, 0, 0, 1.0, 0, 0, 1, 1, 1, 7.2, 2.16, 1, 1, 0, 1, 0, 1, 0, 1, 0, 1
480, '1', 22.287, -2.74, 21.5, -2.74, 1.04, 0, 0, 0, 1.0, 0, 0, 1, 1, 1, 22.287, 0, 1, 1, 0, 1, 0, 1, 0, 1, 0, 1
481, '1', 17.909, -2.21, 17.28, -2.21, 1.04, 0, 0, 0, 1.0, 0, 0, 1, 1, 1, 17.909, 0, 1, 1, 0, 1, 0, 1, 0, 1, 0, 1
482, '1', 17.909, -2.21, 17.28, -2.21, 1.04, 0, 0, 0, 1.0, 0, 0, 1, 1, 1, 17.909, 0, 1, 1, 0, 1, 0, 1, 0, 1, 0, 1
483, '1', 9.552, -1.18, 9.22, -1.18, 1.04, 0, 0, 0, 1.0, 0, 0, 1, 1, 1, 9.552, 0, 1, 1, 0, 1, 0, 1, 0, 1, 0, 1
484, '1', 11.144, -1.37, 10.75, -1.37, 1.04, 0, 0, 0, 1.0, 0, 0, 1, 1, 1, 11.144, 0, 1, 1, 0, 1, 0, 1, 0, 1, 0, 1
494, '1', 1.8274292, -0.71, 2.7, -0.71, 1.0284068, 0, 0, 0, 1.0, 0, 0, 1, 1, 1, 5.8, 1.74, 1, 1, 0, 1, 0, 1, 0, 1, 0, 1
497, '1', 23.879, -2.94, 23.04, -2.94, 1.04, 0, 0, 0, 1.0, 0, 0, 1, 1, 1, 23.879, 0, 1, 1, 0, 1, 0, 1, 0, 1, 0, 1
498, '1', 7.164, -0.88, 6.91, -0.88, 1.0370357, 0, 0, 0, 1.0, 0, 0, 1, 1, 1, 7.164, 0, 1, 1, 0, 1, 0, 1, 0, 1, 0, 1
0 / END OF GENERATOR DATA, BEGIN BRANCH DATA
2, 1, '1', 0.000530993, 0.00313968, 0, 76.5, 76.5, 76.5, 0, 0, 0, 0, 1, 1, 0, 1, 1, 0, 1, 0, 1, 0, 1
44, 1, '1', 0.00547862, 0.0502567, 0.0178098, 250, 250, 250, 0, 0, 0, 0, 1, 1, 0, 1, 1, 0, 1, 0, 1, 0, 1
421, 1, '1', 0.00536892, 0.0515552, 0.0166426, 200, 200, 200, 0, 0, 0, 0, 1, 1, 0, 1, 1, 0, 1, 0, 1, 0, 1
4, 3, '1', 0.000692061, 0.00351835, 0, 225.1, 225.1, 225.1, 0, 0, 0, 0, 1, 1, 0, 1, 1, 0, 1, 0, 1, 0, 1
62, 3, '1', 0.0027178, 0.0260978, 0.00842465, 250, 250, 250, 0, 0, 0, 0, 1, 1, 0, 1, 1, 0, 1, 0, 1, 0, 1
3, 479, '1', 0.00725845, 0.0696995, 0.0224998, 145, 145, 145, 0, 0, 0, 0, 1, 1, 0, 1, 1, 0, 1, 0, 1, 0, 1
6, 5, '1', 0.000555857, 0.00356302, 0, 4.5, 4.5, 4.5, 0, 0, 0, 0, 1, 1, 0, 1, 1, 0, 1, 0, 1, 0, 1
316, 5, '1', 0.00244518, 0.0234799, 0.00757958, 145, 145, 145, 0, 0, 0, 0, 1, 1, 0, 1, 1, 0, 1, 0, 1, 0, 1
401, 5, '1', 0.00488619, 0.0469198, 0.0151462, 145, 145, 145, 0, 0, 0, 0, 1, 1, 0, 1, 1, 0, 1, 0, 1, 0, 1
7, 232, '1', 0.00111912, 0.0148076, 0.312051, 1100, 1100, 1100, 0, 0, 0, 0, 1, 1, 0, 1, 1, 0, 1, 0, 1, 0, 1
7, 262, '1', 0.000946655, 0.0137492, 0.239936, 900, 900, 900, 0, 0, 0, 0, 1, 1, 0, 1, 1, 0, 1, 0, 1, 0, 1
8, 287, '1', 0.00372677, 0.0357864, 0.0115523, 300, 300, 300, 0, 0, 0, 0, 1, 1, 0, 1, 1, 0, 1, 0, 1, 0, 1
8, 457, '1', 0.00197391, 0.0189546, 0.00611875, 200, 200, 200, 0, 0, 0, 0, 1, 1, 0, 1, 1, 0, 1, 0, 1, 0, 1
11, 10, '1', 0.000654968, 0.00320079, 0, 4, 4, 4, 0, 0, 0, 0, 1, 1, 0, 1, 1, 0, 1, 0, 1, 0, 1
342, 10, '1', 0.00282453, 0.0271226, 0.00875548, 145, 145, 145, 0, 0, 0, 0, 1, 1, 0, 1, 1, 0, 1, 0, 1, 0, 1
10, 349, '1', 0.00140166, 0.0134595, 0.00434489, 145, 145, 145, 0, 0, 0, 0, 1, 1, 0, 1, 1, 0, 1, 0, 1, 0, 1
13, 12, '1', 0.000623092, 0.00313413, 0, 65.5, 65.5, 65.5, 0, 0, 0, 0, 1, 1, 0, 1, 1, 0, 1, 0, 1, 0, 1
12, 216, '1', 0.00396229, 0.038048, 0.0122823, 270, 270, 270, 0, 0, 0, 0, 1, 1, 0, 1, 1, 0, 1, 0, 1, 0, 1
12, 304, '1', 0.00231014, 0.0211915, 0.00750976, 290, 290, 290, 0, 0, 0, 0, 1, 1, 0, 1, 1, 0, 1, 0, 1, 0, 1
12, 441, '1', 0.00156469, 0.015025, 0.00485023, 280, 280, 280, 0, 0, 0, 0, 1, 1, 0, 1, 1, 0, 1, 0, 1, 0, 1
386, 14, '1', 0.000316955, 0.00454654, 0.0813632, 900, 900, 900, 0, 0, 0, 0, 1, 1, 0, 1, 1, 0, 1, 0, 1, 0, 1
386, 14, '2', 0.00032, 0.00455, 0.08136, 1200, 1200, 1200, 0, 0, 0, 0, 1, 1, 0, 1, 1, 0, 1, 0, 1, 0, 1
15, 91, '1', 0.00479928, 0.0460852, 0.0148768, 160, 160, 160, 0, 0, 0, 0, 1, 1, 0, 1, 1, 0, 1, 0, 1, 0, 1
15, 230, '1', 0.0108937, 0.104607, 0.0337685, 220, 220, 220, 0, 0, 0, 0, 1, 1, 0, 1, 1, 0, 1, 0, 1, 0, 1
367, 15, '1', 0.00191786, 0.0184163, 0.00594499, 330, 330, 330, 0, 0, 0, 0, 1, 1, 0, 1, 1, 0, 1, 0, 1, 0, 1
15, 369, '1', 0.00185435, 0.0170105, 0.0060281, 220, 220, 220, 0, 0, 0, 0, 1, 1, 0, 1, 1, 0, 1, 0, 1, 0, 1
15, 473, '1', 0.00922481, 0.0846215, 0.0299878, 145, 145, 145, 0, 0, 0, 0, 1, 1, 0, 1, 1, 0, 1, 0, 1, 0, 1
20, 19, '1', 0.000541213, 0.00388582, 0, 7.5, 7.5, 7.5, 0, 0, 0, 0, 1, 1, 0, 1, 1, 0, 1, 0, 1, 0, 1
19, 112, '1', 0.00472218, 0.0453449, 0.0146378, 145, 145, 145, 0, 0, 0, 0, 1, 1, 0, 1, 1, 0, 1, 0, 1, 0, 1
193, 19, '1', 0.00222052, 0.0213226, 0.00688319, 270, 270, 270, 0, 0, 0, 0, 1, 1, 0, 1, 1, 0, 1, 0, 1, 0, 1
19, 272, '1', 0.00229314, 0.0220199, 0.00710827, 205, 205, 205, 0, 0, 0, 0, 1, 1, 0, 1, 1, 0, 1, 0, 1, 0, 1
22, 21, '1', 0.000587223, 0.00317397, 0, 254.2, 254.2, 254.2, 0, 0, 0, 0, 1, 1, 0, 1, 1, 0, 1, 0, 1, 0, 1
21, 112, '1', 0.00509204, 0.0488965, 0.0157843, 270, 270, 270, 0, 0, 0, 0, 1, 1, 0, 1, 1, 0, 1, 0, 1, 0, 1
21, 196, '1', 0.00220719, 0.0202471, 0.00717509, 365, 365, 365, 0, 0, 0, 0, 1, 1, 0, 1, 1, 0, 1, 0, 1, 0, 1
151, 23, '1', 0.000182, 0.002607, 0.046646, 1050, 1050, 1050, 0, 0, 0, 0, 0, 1, 0, 1, 1, 0, 1, 0, 1, 0, 1
23, 386, '1', 0.001642, 0.023851, 0.416226, 1000, 1000, 1000, 0, 0, 0, 0, 1, 1, 0, 1, 1, 0, 1, 0, 1, 0, 1
23, 464, '1', 0.000947169, 0.0125324, 0.264105, 1000, 1000, 1000, 0, 0, 0, 0, 0, 1, 0, 1, 1, 0, 1, 0, 1, 0, 1
23, 471, '1', 0.000532103, 0.0070405, 0.14837, 1100, 1100, 1100, 0, 0, 0, 0, 1, 1, 0, 1, 1, 0, 1, 0, 1, 0, 1
25, 24, '1', 0.000613052, 0.00362887, 0, 3.6, 3.6, 3.6, 0, 0, 0, 0, 1, 1, 0, 1, 1, 0, 1, 0, 1, 0, 1
26, 24, '1', 0.000563017, 0.00372943, 0, 29.5, 29.5, 29.5, 0, 0, 0, 0, 1, 1, 0, 1, 1, 0, 1, 0, 1, 0, 1
210, 24, '1', 0.00221775, 0.020344, 0.00720941, 270, 270, 270, 0, 0, 0, 0, 1, 1, 0, 1, 1, 0, 1, 0, 1, 0, 1
24, 360, '1', 0.0023654, 0.0227138, 0.00733228, 240, 240, 240, 0, 0, 0, 0, 1, 1, 0, 1, 1, 0, 1, 0, 1, 0, 1
28, 27, '1', 0.000686715, 0.00396302, 0, 108.6, 108.6, 108.6, 0, 0, 0, 0, 1, 1, 0, 1, 1, 0, 1, 0, 1, 0, 1
27, 68, '1', 0.00560738, 0.053845, 0.0173818, 300, 300, 300, 0, 0, 0, 0, 1, 1, 0, 1, 1, 0, 1, 0, 1, 0, 1
27, 382, '1', 0.00336979, 0.0309119, 0.0109544, 185, 185, 185, 0, 0, 0, 0, 1, 1, 0, 1, 1, 0, 1, 0, 1, 0, 1
30, 29, '1', 0.000616364, 0.00329848, 0, 157, 157, 157, 0, 0, 0, 0, 1, 1, 0, 1, 1, 0, 1, 0, 1, 0, 1
454, 29, '1', 0.00246982, 0.0226563, 0.00802886, 300, 300, 300, 0, 0, 0, 0, 1, 1, 0, 1, 1, 0, 1, 0, 1, 0, 1
29, 491, '1', 0.005607, 0.053837, 0.017379, 145, 145, 145, 0, 0, 0, 0, 1, 1, 0, 1, 1, 0, 1, 0, 1, 0, 1
32, 31, '1', 0.000625228, 0.00342917, 0, 15.7, 15.7, 15.7, 0, 0, 0, 0, 1, 1, 0, 1, 1, 0, 1, 0, 1, 0, 1
31, 85, '1', 0.00530344, 0.0509265, 0.0164396, 300, 300, 300, 0, 0, 0, 0, 1, 1, 0, 1, 1, 0, 1, 0, 1, 0, 1
104, 31, '1', 0.00552581, 0.0530617, 0.0171289, 145, 145, 145, 0, 0, 0, 0, 1, 1, 0, 1, 1, 0, 1, 0, 1, 0, 1
31, 189, '1', 0.0057068, 0.0547997, 0.01769, 145, 145, 145, 0, 0, 0, 0, 1, 1, 0, 1, 1, 0, 1, 0, 1, 0, 1
31, 205, '1', 0.00779682, 0.0748692, 0.0241686, 145, 145, 145, 0, 0, 0, 0, 1, 1, 0, 1, 1, 0, 1, 0, 1, 0, 1
31, 218, '1', 0.00827343, 0.0794458, 0.025646, 145, 145, 145, 0, 0, 0, 0, 1, 1, 0, 1, 1, 0, 1, 0, 1, 0, 1
267, 31, '1', 0.00489674, 0.0470211, 0.0151789, 220, 220, 220, 0, 0, 0, 0, 1, 1, 0, 1, 1, 0, 1, 0, 1, 0, 1
34, 33, '1', 0.000624403, 0.00328363, 0, 43.4, 43.4, 43.4, 0, 0, 0, 0, 1, 1, 0, 1, 1, 0, 1, 0, 1, 0, 1
83, 33, '1', 0.00528651, 0.0507639, 0.0163871, 220, 220, 220, 0, 0, 0, 0, 1, 1, 0, 1, 1, 0, 1, 0, 1, 0, 1
112, 33, '1', 0.00706143, 0.0678076, 0.021889, 220, 220, 220, 0, 0, 0, 0, 1, 1, 0, 1, 1, 0, 1, 0, 1, 0, 1
36, 35, '1', 0.000582978, 0.00303006, 0, 62.9, 62.9, 62.9, 0, 0, 0, 0, 1, 1, 0, 1, 1, 0, 1, 0, 1, 0, 1
191, 35, '1', 0.00403801, 0.0370417, 0.0131267, 145, 145, 145, 0, 0, 0, 0, 1, 1, 0, 1, 1, 0, 1, 0, 1, 0, 1
35, 399, '1', 0.005636, 0.054123, 0.017472, 270, 270, 270, 0, 0, 0, 0, 1, 1, 0, 1, 1, 0, 1, 0, 1, 0, 1
38, 37, '1', 0.0005458, 0.00382289, 0, 0.2, 0.2, 0.2, 0, 0, 0, 0, 1, 1, 0, 1, 1, 0, 1, 0, 1, 0, 1
76, 37, '1', 0.00147415, 0.0141555, 0.00456957, 270, 270, 270, 0, 0, 0, 0, 1, 1, 0, 1, 1, 0, 1, 0, 1, 0, 1
37, 176, '1', 0.00303873, 0.0291795, 0.00941948, 275, 275, 275, 0, 0, 0, 0, 1, 1, 0, 1, 1, 0, 1, 0, 1, 0, 1
39, 332, '1', 0.000403375, 0.00578618, 0.103547, 900, 900, 900, 0, 0, 0, 0, 1, 1, 0, 1, 1, 0, 1, 0, 1, 0, 1
39, 428, '1', 0.000521367, 0.00689845, 0.145376, 900, 900, 900, 0, 0, 0, 0, 1, 1, 0, 1, 1, 0, 1, 0, 1, 0, 1
41, 40, '1', 0.000631179, 0.00392265, 0, 97.5, 97.5, 97.5, 0, 0, 0, 0, 1, 1, 0, 1, 1, 0, 1, 0, 1, 0, 1
40, 131, '1', 0.00290861, 0.0266814, 0.00945527, 145, 145, 145, 0, 0, 0, 0, 1, 1, 0, 1, 1, 0, 1, 0, 1, 0, 1
43, 42, '1', 0.000541641, 0.00311887, 0, 7.7, 7.7, 7.7, 0, 0, 0, 0, 1, 1, 0, 1, 1, 0, 1, 0, 1, 0, 1
81, 42, '1', 0.00236124, 0.0216602, 0.00767586, 270, 270, 270, 0, 0, 0, 0, 1, 1, 0, 1, 1, 0, 1, 0, 1, 0, 1
42, 191, '1', 0.0063685, 0.0584198, 0.0207026, 270, 270, 270, 0, 0, 0, 0, 1, 1, 0, 1, 1, 0, 1, 0, 1, 0, 1
45, 44, '1', 0.000636537, 0.00387643, 0, 2.8, 2.8, 2.8, 0, 0, 0, 0, 1, 1, 0, 1, 1, 0, 1, 0, 1, 0, 1
44, 200, '1', 0.00210518, 0.0193113, 0.00684347, 250, 250, 250, 0, 0, 0, 0, 1, 1, 0, 1, 1, 0, 1, 0, 1, 0, 1
47, 46, '1', 0.000602161, 0.00345412, 0, 63, 63, 63, 0, 0, 0, 0, 1, 1, 0, 1, 1, 0, 1, 0, 1, 0, 1
46, 156, '1', 0.00661096, 0.0634819, 0.0204927, 185, 185, 185, 0, 0, 0, 0, 1, 1, 0, 1, 1, 0, 1, 0, 1, 0, 1
238, 46, '1', 0.00313385, 0.0300929, 0.00971433, 185, 185, 185, 0, 0, 0, 0, 1, 1, 0, 1, 1, 0, 1, 0, 1, 0, 1
51, 48, '1', 0.000657783, 0.00367224, 0, 0.6, 0.6, 0.6, 0, 0, 0, 0, 1, 1, 0, 1, 1, 0, 1, 0, 1, 0, 1
52, 48, '1', 0.00062, 0.00334229, 0, 37.9, 37.9, 37.9, 0, 0, 0, 0, 1, 1, 0, 1, 1, 0, 1, 0, 1, 0, 1
358, 48, '1', 0.00450039, 0.0412832, 0.0146298, 270, 270, 270, 0, 0, 0, 0, 1, 1, 0, 1, 1, 0, 1, 0, 1, 0, 1
419, 48, '1', 0.0046368, 0.044525, 0.0143732, 220, 220, 220, 0, 0, 0, 0, 1, 1, 0, 1, 1, 0, 1, 0, 1, 0, 1
54, 53, '1', 0.000680462, 0.00306134, 0, 51.3, 51.3, 51.3, 0, 0, 0, 0, 1, 1, 0, 1, 1, 0, 1, 0, 1, 0, 1
233, 53, '1', 0.00236198, 0.0216671, 0.0076783, 200, 200, 200, 0, 0, 0, 0, 1, 1, 0, 1, 1, 0, 1, 0, 1, 0, 1
53, 276, '1', 0.0015021, 0.0144239, 0.00465621, 200, 200, 200, 0, 0, 0, 0, 1, 1, 0, 1, 1, 0, 1, 0, 1, 0, 1
56, 55, '1', 0.000640992, 0.00331002, 0, 3.1, 3.1, 3.1, 0, 0, 0, 0, 1, 1, 0, 1, 1, 0, 1, 0, 1, 0, 1
55, 66, '1', 0.00432958, 0.041575, 0.0134209, 145, 145, 145, 0, 0, 0, 0, 1, 1, 0, 1, 1, 0, 1, 0, 1, 0, 1
55, 500, '1', 0.00448061, 0.0411018, 0.0145655, 145, 145, 145, 0, 0, 0, 0, 1, 1, 0, 1, 1, 0, 1, 0, 1, 0, 1
57, 123, '1', 0.001682, 0.024427, 0.426274, 1000, 1000, 1000, 0, 0, 0, 0, 1, 1, 0, 1, 1, 0, 1, 0, 1, 0, 1
440, 57, '1', 0.000600772, 0.00872563, 0.15227, 900, 900, 900, 0, 0, 0, 0, 1, 1, 0, 1, 1, 0, 1, 0, 1, 0, 1
59, 58, '1', 0.000620439, 0.00384844, 0, 252.9, 252.9, 252.9, 0, 0, 0, 0, 1, 1, 0, 1, 1, 0, 1, 0, 1, 0, 1
58, 253, '1', 0.00453214, 0.04352, 0.0140487, 200, 200, 200, 0, 0, 0, 0, 1, 1, 0, 1, 1, 0, 1, 0, 1, 0, 1
322, 58, '1', 0.00201876, 0.0193852, 0.00625775, 220, 220, 220, 0, 0, 0, 0, 1, 1, 0, 1, 1, 0, 1, 0, 1, 0, 1
322, 58, '2', 0.00202, 0.01939, 0.00626, 320.3, 320.3, 320.3, 0, 0, 0, 0, 1, 1, 0, 1, 1, 0, 1, 0, 1, 0, 1
61, 60, '1', 0.000528782, 0.00351793, 0, 0.3, 0.3, 0.3, 0, 0, 0, 0, 1, 1, 0, 1, 1, 0, 1, 0, 1, 0, 1
60, 131, '1', 0.0019849, 0.018208, 0.00645249, 185, 185, 185, 0, 0, 0, 0, 1, 1, 0, 1, 1, 0, 1, 0, 1, 0, 1
466, 60, '1', 0.00201135, 0.0193141, 0.00623481, 185, 185, 185, 0, 0, 0, 0, 1, 1, 0, 1, 1, 0, 1, 0, 1, 0, 1
64, 62, '1', 0.000661196, 0.00327389, 0, 45.6, 45.6, 45.6, 0, 0, 0, 0, 1, 1, 0, 1, 1, 0, 1, 0, 1, 0, 1
287, 62, '1', 0.00545324, 0.0523649, 0.016904, 160, 160, 160, 0, 0, 0, 0, 1, 1, 0, 1, 1, 0, 1, 0, 1, 0, 1
62, 457, '1', 0.00726746, 0.069786, 0.0225277, 200, 200, 200, 0, 0, 0, 0, 1, 1, 0, 1, 1, 0, 1, 0, 1, 0, 1
80, 65, '1', 0.000960188, 0.0137734, 0.246483, 1350, 1350, 1350, 0, 0, 0, 0, 1, 1, 0, 1, 1, 0, 1, 0, 1, 0, 1
65, 297, '1', 0.000919634, 0.0131916, 0.236073, 900, 900, 900, 0, 0, 0, 0, 1, 1, 0, 1, 1, 0, 1, 0, 1, 0, 1
67, 66, '1', 0.000661357, 0.00335859, 0, 6.7, 6.7, 6.7, 0, 0, 0, 0, 1, 1, 0, 1, 1, 0, 1, 0, 1, 0, 1
66, 308, '1', 0.00718043, 0.0689503, 0.0222579, 270, 270, 270, 0, 0, 0, 0, 1, 1, 0, 1, 1, 0, 1, 0, 1, 0, 1
69, 68, '1', 0.00066883, 0.00399823, 0, 27.6, 27.6, 27.6, 0, 0, 0, 0, 1, 1, 0, 1, 1, 0, 1, 0, 1, 0, 1
68, 295, '1', 0.00446902, 0.0409955, 0.0145278, 145, 145, 145, 0, 0, 0, 0, 1, 1, 0, 1, 1, 0, 1, 0, 1, 0, 1
68, 314, '1', 0.00180512, 0.0173337, 0.00559552, 220, 220, 220, 0, 0, 0, 0, 1, 1, 0, 1, 1, 0, 1, 0, 1, 0, 1
216, 70, '1', 0.00259564, 0.0238105, 0.00843787, 170, 170, 170, 0, 0, 0, 0, 1, 1, 0, 1, 1, 0, 1, 0, 1, 0, 1
70, 490, '1', 0.00212701, 0.0195116, 0.00691444, 170, 170, 170, 0, 0, 0, 0, 1, 1, 0, 1, 1, 0, 1, 0, 1, 0, 1
75, 74, '1', 0.00058441, 0.0033391, 0, 8.8, 8.8, 8.8, 0, 0, 0, 0, 1, 1, 0, 1, 1, 0, 1, 0, 1, 0, 1
74, 189, '1', 0.00563229, 0.0540843, 0.017459, 220, 220, 220, 0, 0, 0, 0, 1, 1, 0, 1, 1, 0, 1, 0, 1, 0, 1
240, 74, '1', 0.00443354, 0.04067, 0.0144125, 220, 220, 220, 0, 0, 0, 0, 1, 1, 0, 1, 1, 0, 1, 0, 1, 0, 1
77, 76, '1', 0.000695009, 0.00331266, 0, 12.2, 12.2, 12.2, 0, 0, 0, 0, 1, 1, 0, 1, 1, 0, 1, 0, 1, 0, 1
452, 76, '1', 0.002012, 0.019322, 0.006237, 330, 330, 330, 0, 0, 0, 0, 1, 1, 0, 1, 1, 0, 1, 0, 1, 0, 1
79, 78, '1', 0.000622277, 0.00327852, 0, 0.5, 0.5, 0.5, 0, 0, 0, 0, 1, 1, 0, 1, 1, 0, 1, 0, 1, 0, 1
78, 328, '1', 0.00543197, 0.0498288, 0.0176582, 260, 260, 260, 0, 0, 0, 0, 1, 1, 0, 1, 1, 0, 1, 0, 1, 0, 1
78, 387, '1', 0.00235449, 0.022609, 0.00729845, 260, 260, 260, 0, 0, 0, 0, 1, 1, 0, 1, 1, 0, 1, 0, 1, 0, 1
407, 80, '1', 0.000818, 0.010825, 0.228132, 1050, 1050, 1050, 0, 0, 0, 0, 1, 1, 0, 1, 1, 0, 1, 0, 1, 0, 1
149, 81, '1', 0.00287908, 0.0264105, 0.00935925, 145, 145, 145, 0, 0, 0, 0, 1, 1, 0, 1, 1, 0, 1, 0, 1, 0, 1
84, 83, '1', 0.000637555, 0.00365521, 0, 105.4, 105.4, 105.4, 0, 0, 0, 0, 1, 1, 0, 1, 1, 0, 1, 0, 1, 0, 1
83, 342, '1', 0.00411562, 0.0395203, 0.0127576, 145, 145, 145, 0, 0, 0, 0, 1, 1, 0, 1, 1, 0, 1, 0, 1, 0, 1
86, 85, '1', 0.00065231, 0.00390108, 0, 30, 30, 30, 0, 0, 0, 0, 1, 1, 0, 1, 1, 0, 1, 0, 1, 0, 1
272, 85, '1', 0.00441169, 0.0404695, 0.0143414, 270, 270, 270, 0, 0, 0, 0, 1, 1, 0, 1, 1, 0, 1, 0, 1, 0, 1
88, 87, '1', 0.000622526, 0.00356856, 0, 7.7, 7.7, 7.7, 0, 0, 0, 0, 1, 1, 0, 1, 1, 0, 1, 0, 1, 0, 1
87, 141, '1', 0.001846, 0.017727, 0.005723, 520, 520, 520, 0, 0, 0, 0, 1, 1, 0, 1, 1, 0, 1, 0, 1, 0, 1
87, 143, '1', 0.00382, 0.035043, 0.012419, 515, 515, 515, 0, 0, 0, 0, 1, 1, 0, 1, 1, 0, 1, 0, 1, 0, 1
423, 87, '1', 0.00183568, 0.0176272, 0.00569025, 270, 270, 270, 0, 0, 0, 0, 1, 1, 0, 1, 1, 0, 1, 0, 1, 0, 1
90, 89, '1', 0.000554087, 0.00386402, 0, 10.5, 10.5, 10.5, 0, 0, 0, 0, 1, 1, 0, 1, 1, 0, 1, 0, 1, 0, 1
89, 187, '1', 0.00211627, 0.0203216, 0.00656004, 145, 145, 145, 0, 0, 0, 0, 1, 1, 0, 1, 1, 0, 1, 0, 1, 0, 1
89, 457, '1', 0.009012, 0.082666, 0.029295, 145, 145, 145, 0, 0, 0, 0, 1, 1, 0, 1, 1, 0, 1, 0, 1, 0, 1
92, 91, '1', 0.0005717, 0.00361724, 0, 104.2, 104.2, 104.2, 0, 0, 0, 0, 1, 1, 0, 1, 1, 0, 1, 0, 1, 0, 1
91, 133, '1', 0.00504049, 0.0484015, 0.0156245, 270, 270, 270, 0, 0, 0, 0, 1, 1, 0, 1, 1, 0, 1, 0, 1, 0, 1
94, 93, '1', 0.000536047, 0.00328149, 0, 8.2, 8.2, 8.2, 0, 0, 0, 0, 1, 1, 0, 1, 1, 0, 1, 0, 1, 0, 1
269, 93, '1', 0.00392064, 0.035965, 0.0127451, 270, 270, 270, 0, 0, 0, 0, 1, 1, 0, 1, 1, 0, 1, 0, 1, 0, 1
336, 93, '1', 0.00579454, 0.0531548, 0.0188368, 270, 270, 270, 0, 0, 0, 0, 1, 1, 0, 1, 1, 0, 1, 0, 1, 0, 1
96, 95, '1', 0.00056273, 0.00325345, 0, 56.2, 56.2, 56.2, 0, 0, 0, 0, 1, 1, 0, 1, 1, 0, 1, 0, 1, 0, 1
95, 170, '1', 0.0021107, 0.020268, 0.00654275, 145, 145, 145, 0, 0, 0, 0, 1, 1, 0, 1, 1, 0, 1, 0, 1, 0, 1
95, 369, '1', 0.00409437, 0.0393163, 0.0126918, 270, 270, 270, 0, 0, 0, 0, 1, 1, 0, 1, 1, 0, 1, 0, 1, 0, 1
98, 97, '1', 0.000568811, 0.00398603, 0, 66.4, 66.4, 66.4, 0, 0, 0, 0, 1, 1, 0, 1, 1, 0, 1, 0, 1, 0, 1
181, 97, '1', 0.00299237, 0.0287344, 0.00927578, 145, 145, 145, 0, 0, 0, 0, 1, 1, 0, 1, 1, 0, 1, 0, 1, 0, 1
358, 97, '1', 0.00267648, 0.024552, 0.00870064, 270, 270, 270, 0, 0, 0, 0, 1, 1, 0, 1, 1, 0, 1, 0, 1, 0, 1
100, 99, '1', 0.000644448, 0.00362034, 0, 22.7, 22.7, 22.7, 0, 0, 0, 0, 1, 1, 0, 1, 1, 0, 1, 0, 1, 0, 1
101, 99, '1', 0.000699472, 0.00329389, 0, 1.4, 1.4, 1.4, 0, 0, 0, 0, 1, 1, 0, 1, 1, 0, 1, 0, 1, 0, 1
99, 465, '1', 0.0026889, 0.0258203, 0.00833507, 145, 145, 145, 0, 0, 0, 0, 1, 1, 0, 1, 1, 0, 1, 0, 1, 0, 1
472, 99, '1', 0.00331831, 0.0318642, 0.0102861, 145, 145, 145, 0, 0, 0, 0, 1, 1, 0, 1, 1, 0, 1, 0, 1, 0, 1
103, 102, '1', 0.000613984, 0.00387398, 0, 64.6, 64.6, 64.6, 0, 0, 0, 0, 1, 1, 0, 1, 1, 0, 1, 0, 1, 0, 1
102, 308, '1', 0.00564993, 0.0542537, 0.0175137, 270, 270, 270, 0, 0, 0, 0, 1, 1, 0, 1, 1, 0, 1, 0, 1, 0, 1
419, 102, '1', 0.00363843, 0.0349382, 0.0112784, 270, 270, 270, 0, 0, 0, 0, 1, 1, 0, 1, 1, 0, 1, 0, 1, 0, 1
105, 104, '1', 0.000672543, 0.00375095, 0, 144.2, 144.2, 144.2, 0, 0, 0, 0, 1, 1, 0, 1, 1, 0, 1, 0, 1, 0, 1
104, 191, '1', 0.00517651, 0.0474854, 0.0168277, 145, 145, 145, 0, 0, 0, 0, 1, 1, 0, 1, 1, 0, 1, 0, 1, 0, 1
107, 106, '1', 0.000574563, 0.00320633, 0, 24.5, 24.5, 24.5, 0, 0, 0, 0, 1, 1, 0, 1, 1, 0, 1, 0, 1, 0, 1
106, 191, '1', 0.00446795, 0.0429036, 0.0138498, 270, 270, 270, 0, 0, 0, 0, 1, 1, 0, 1, 1, 0, 1, 0, 1, 0, 1
236, 106, '1', 0.00311532, 0.029915, 0.00965689, 270, 270, 270, 0, 0, 0, 0, 1, 1, 0, 1, 1, 0, 1, 0, 1, 0, 1
109, 108, '1', 0.000658007, 0.00300957, 0, 62.9, 62.9, 62.9, 0, 0, 0, 0, 1, 1, 0, 1, 1, 0, 1, 0, 1, 0, 1
108, 472, '1', 0.00203292, 0.0195212, 0.00630167, 185, 185, 185, 0, 0, 0, 0, 1, 1, 0, 1, 1, 0, 1, 0, 1, 0, 1
108, 495, '1', 0.00361075, 0.0346724, 0.0111926, 220, 220, 220, 0, 0, 0, 0, 1, 1, 0, 1, 1, 0, 1, 0, 1, 0, 1
111, 110, '1', 0.000526841, 0.00370826, 0, 87, 87, 87, 0, 0, 0, 0, 1, 1, 0, 1, 1, 0, 1, 0, 1, 0, 1
274, 110, '1', 0.00312607, 0.0300181, 0.0096902, 220, 220, 220, 0, 0, 0, 0, 1, 1, 0, 1, 1, 0, 1, 0, 1, 0, 1
110, 316, '1', 0.00343915, 0.0330245, 0.0106607, 145, 145, 145, 0, 0, 0, 0, 1, 1, 0, 1, 1, 0, 1, 0, 1, 0, 1
113, 112, '1', 0.000644371, 0.00311935, 0, 73, 73, 73, 0, 0, 0, 0, 1, 1, 0, 1, 1, 0, 1, 0, 1, 0, 1
193, 112, '1', 0.00286733, 0.0275336, 0.00888817, 175, 175, 175, 0, 0, 0, 0, 1, 1, 0, 1, 1, 0, 1, 0, 1, 0, 1
112, 236, '1', 0.00632924, 0.0607768, 0.0196194, 300, 300, 300, 0, 0, 0, 0, 1, 1, 0, 1, 1, 0, 1, 0, 1, 0, 1
112, 283, '1', 0.00861853, 0.0827597, 0.0267158, 145, 145, 145, 0, 0, 0, 0, 1, 1, 0, 1, 1, 0, 1, 0, 1, 0, 1
372, 112, '1', 0.0020065, 0.0192675, 0.00621976, 285, 285, 285, 0, 0, 0, 0, 1, 1, 0, 1, 1, 0, 1, 0, 1, 0, 1
112, 499, '1', 0.0055765, 0.0511546, 0.018128, 220, 220, 220, 0, 0, 0, 0, 1, 1, 0, 1, 1, 0, 1, 0, 1, 0, 1
115, 114, '1', 0.000506233, 0.00336036, 0, 6.7, 6.7, 6.7, 0, 0, 0, 0, 1, 1, 0, 1, 1, 0, 1, 0, 1, 0, 1
116, 114, '1', 0.000505013, 0.00341051, 0, 5.3, 5.3, 5.3, 0, 0, 0, 0, 1, 1, 0, 1, 1, 0, 1, 0, 1, 0, 1
114, 191, '1', 0.00555724, 0.0533636, 0.0172264, 145, 145, 145, 0, 0, 0, 0, 1, 1, 0, 1, 1, 0, 1, 0, 1, 0, 1
114, 312, '1', 0.0066089, 0.0634622, 0.0204863, 145, 145, 145, 0, 0, 0, 0, 1, 1, 0, 1, 1, 0, 1, 0, 1, 0, 1
118, 117, '1', 0.000633836, 0.00385096, 0, 12.8, 12.8, 12.8, 0, 0, 0, 0, 1, 1, 0, 1, 1, 0, 1, 0, 1, 0, 1
117, 426, '1', 0.00317216, 0.029099, 0.010312, 145, 145, 145, 0, 0, 0, 0, 1, 1, 0, 1, 1, 0, 1, 0, 1, 0, 1
490, 117, '1', 0.00299873, 0.0275081, 0.0097482, 300, 300, 300, 0, 0, 0, 0, 1, 1, 0, 1, 1, 0, 1, 0, 1, 0, 1
120, 119, '1', 0.000556147, 0.00305904, 0, 46.6, 46.6, 46.6, 0, 0, 0, 0, 1, 1, 0, 1, 1, 0, 1, 0, 1, 0, 1
119, 129, '1', 0.00234965, 0.0215539, 0.0076382, 270, 270, 270, 0, 0, 0, 0, 1, 1, 0, 1, 1, 0, 1, 0, 1, 0, 1
253, 119, '1', 0.00149439, 0.0143499, 0.00463231, 250, 250, 250, 0, 0, 0, 0, 1, 1, 0, 1, 1, 0, 1, 0, 1, 0, 1
122, 121, '1', 0.000554934, 0.00384643, 0, 70.4, 70.4, 70.4, 0, 0, 0, 0, 1, 1, 0, 1, 1, 0, 1, 0, 1, 0, 1
121, 276, '1', 0.00254757, 0.0244631, 0.00789698, 145, 145, 145, 0, 0, 0, 0, 1, 1, 0, 1, 1, 0, 1, 0, 1, 0, 1
121, 287, '1', 0.00708754, 0.0680583, 0.02197, 145, 145, 145, 0, 0, 0, 0, 1, 1, 0, 1, 1, 0, 1, 0, 1, 0, 1
165, 123, '1', 0.000216027, 0.00313758, 0.0547534, 900, 900, 900, 0, 0, 0, 0, 1, 1, 0, 1, 1, 0, 1, 0, 1, 0, 1
124, 260, '1', 0.00203952, 0.0187091, 0.00663005, 220, 220, 220, 0, 0, 0, 0, 1, 1, 0, 1, 1, 0, 1, 0, 1, 0, 1
124, 369, '1', 0.00769284, 0.0705683, 0.0250077, 225, 225, 225, 0, 0, 0, 0, 1, 1, 0, 1, 1, 0, 1, 0, 1, 0, 1
130, 129, '1', 0.000698008, 0.00322102, 0, 166, 166, 166, 0, 0, 0, 0, 1, 1, 0, 1, 1, 0, 1, 0, 1, 0, 1
304, 129, '1', 0.00306297, 0.0294122, 0.0094946, 195, 195, 195, 0, 0, 0, 0, 1, 1, 0, 1, 1, 0, 1, 0, 1, 0, 1
324, 129, '1', 0.00187843, 0.0172313, 0.00610636, 195, 195, 195, 0, 0, 0, 0, 1, 1, 0, 1, 1, 0, 1, 0, 1, 0, 1
132, 131, '1', 0.000673258, 0.00361521, 0, 41.6, 41.6, 41.6, 0, 0, 0, 0, 1, 1, 0, 1, 1, 0, 1, 0, 1, 0, 1
131, 333, '1', 0.00222709, 0.0213857, 0.00690355, 300, 300, 300, 0, 0, 0, 0, 1, 1, 0, 1, 1, 0, 1, 0, 1, 0, 1
134, 133, '1', 0.000515032, 0.00308264, 0, 66, 66, 66, 0, 0, 0, 0, 1, 1, 0, 1, 1, 0, 1, 0, 1, 0, 1
133, 226, '1', 0.00644015, 0.0590771, 0.0209355, 145, 145, 145, 0, 0, 0, 0, 1, 1, 0, 1, 1, 0, 1, 0, 1, 0, 1
133, 369, '1', 0.00615507, 0.056462, 0.0200088, 300, 300, 300, 0, 0, 0, 0, 1, 1, 0, 1, 1, 0, 1, 0, 1, 0, 1
473, 133, '1', 0.00475466, 0.0456568, 0.0147385, 145, 145, 145, 0, 0, 0, 0, 1, 1, 0, 1, 1, 0, 1, 0, 1, 0, 1
136, 135, '1', 0.000548777, 0.0036604, 0, 45.6, 45.6, 45.6, 0, 0, 0, 0, 1, 1, 0, 1, 1, 0, 1, 0, 1, 0, 1
135, 287, '1', 0.00756782, 0.0694215, 0.0246013, 300, 300, 300, 0, 0, 0, 0, 1, 1, 0, 1, 1, 0, 1, 0, 1, 0, 1
135, 457, '1', 0.00686487, 0.0629732, 0.0223162, 220, 220, 220, 0, 0, 0, 0, 1, 1, 0, 1, 1, 0, 1, 0, 1, 0, 1
138, 137, '1', 0.000555555, 0.00378798, 0, 122.9, 122.9, 122.9, 0, 0, 0, 0, 1, 1, 0, 1, 1, 0, 1, 0, 1, 0, 1
137, 214, '1', 0.00312011, 0.029961, 0.00967175, 200, 200, 200, 0, 0, 0, 0, 1, 1, 0, 1, 1, 0, 1, 0, 1, 0, 1
137, 426, '1', 0.00299838, 0.028792, 0.00929439, 145, 145, 145, 0, 0, 0, 0, 1, 1, 0, 1, 1, 0, 1, 0, 1, 0, 1
137, 426, '2', 0.003, 0.02879, 0.00929, 320.3, 320.3, 320.3, 0, 0, 0, 0, 1, 1, 0, 1, 1, 0, 1, 0, 1, 0, 1
140, 139, '1', 0.000600197, 0.00318213, 0, 0.4, 0.4, 0.4, 0, 0, 0, 0, 1, 1, 0, 1, 1, 0, 1, 0, 1, 0, 1
139, 376, '1', 0.00267603, 0.0256967, 0.00829519, 185, 185, 185, 0, 0, 0, 0, 1, 1, 0, 1, 1, 0, 1, 0, 1, 0, 1
429, 139, '1', 0.00146772, 0.0140938, 0.00454964, 185, 185, 185, 0, 0, 0, 0, 1, 1, 0, 1, 1, 0, 1, 0, 1, 0, 1
142, 141, '1', 0.000686707, 0.00341671, 0, 209.8, 209.8, 209.8, 0, 0, 0, 0, 1, 1, 0, 1, 1, 0, 1, 0, 1, 0, 1
300, 141, '1', 0.00267026, 0.024495, 0.00868044, 430, 430, 430, 0, 0, 0, 0, 1, 1, 0, 1, 1, 0, 1, 0, 1, 0, 1
...
0 / END OF BRANCH DATA, BEGIN TRANSFORMER DATA
8, 7, 0, '1', 1, 1, 1, 0, 0, 2, ' ', 1, 1, 1, 0, 1, 0, 1, 0, 1, ' '
0.000355062, 0.0129, 567
1, 138, 0, 567, 567, 567, 0, 0, 1.5, .51, 1.5, .51, 159, 0, 0, 0, 0
1, 345
9, 7, 0, '1', 1, 1, 1, 0, 0, 2, ' ', 1, 1, 1, 0, 1, 0, 1, 0, 1, ' '
0.00012, 0.01362, 900
1, 13.8, 0, 900, 900, 900, 0, 0, 1.5, .51, 1.5, .51, 159, 0, 0, 0, 0
1, 345
9, 7, 0, '2', 1, 1, 1, 0, 0, 2, ' ', 1, 1, 1, 0, 1, 0, 1, 0, 1, ' '
0.00012, 0.01362, 900
1, 13.8, 0, 900, 900, 900, 0, 0, 1.5, .51, 1.5, .51, 159, 0, 0, 0, 0
1, 345
15, 14, 0, '1', 1, 1, 1, 0, 0, 2, ' ', 1, 1, 1, 0, 1, 0, 1, 0, 1, ' '
0.000207947, 0.01122, 682
1, 138, 0, 682, 682, 682, 0, 0, 1.5, .51, 1.5, .51, 159, 0, 0, 0, 0
1, 345
16, 14, 0, '1', 1, 1, 1, 0, 0, 2, ' ', 1, 1, 1, 0, 1, 0, 1, 0, 1, ' '
0.000325948, 0.01202, 596
1, 13.8, 0, 596, 596, 596, 0, 0, 1.5, .51, 1.5, .51, 159, 0, 0, 0, 0
1, 345
17, 14, 0, '1', 1, 1, 1, 0, 0, 2, ' ', 1, 1, 1, 0, 1, 0, 1, 0, 1, ' '
0.000279, 0.01438, 930
1, 13.8, 0, 930, 930, 930, 0, 0, 1.5, .51, 1.5, .51, 159, 0, 0, 0, 0
1, 345
17, 14, 0, '2', 1, 1, 1, 0, 0, 2, ' ', 1, 1, 1, 0, 1, 0, 1, 0, 1, ' '
0.000354, 0.01438, 930
1, 13.8, 0, 930, 930, 930, 0, 0, 1.5, .51, 1.5, .51, 159, 0, 0, 0, 0
1, 345
18, 14, 0, '1', 1, 1, 1, 0, 0, 2, ' ', 1, 1, 1, 0, 1, 0, 1, 0, 1, ' '
0.00141719, 0.05115, 340
1, 13.8, 0, 340, 340, 340, 0, 0, 1.5, .51, 1.5, .51, 159, 0, 0, 0, 0
1, 345
24, 23, 0, '1', 1, 1, 1, 0, 0, 2, ' ', 1, 1, 1, 0, 1, 0, 1, 0, 1, ' '
0.00033, 0.01764, 626
1, 138, 0, 626, 626, 626, 0, 0, 1.5, .51, 1.5, .51, 159, 0, 0, 0, 0
1, 345
40, 39, 0, '1', 1, 1, 1, 0, 0, 2, ' ', 1, 1, 1, 0, 1, 0, 1, 0, 1, ' '
0.0007, 0.02531, 428
1, 138, 0, 428, 428, 428, 0, 0, 1.5, .51, 1.5, .51, 159, 0, 0, 0, 0
1, 345
49, 48, 0, '1', 1, 1, 1, 0, 0, 2, ' ', 1, 1, 1, 0, 1, 0, 1, 0, 1, ' '
0.01331, 0.27853, 57
1, 13.8, 0, 57, 57, 57, 0, 0, 1.5, .51, 1.5, .51, 159, 0, 0, 0, 0
1, 138
50, 48, 0, '1', 1, 1, 1, 0, 0, 2, ' ', 1, 1, 1, 0, 1, 0, 1, 0, 1, ' '
0.00715, 0.16356, 100
1, 13.8, 0, 100, 100, 100, 0, 0, 1.5, .51, 1.5, .51, 159, 0, 0, 0, 0
1, 138
58, 57, 0, '1', 1, 1, 1, 0, 0, 2, ' ', 1, 1, 1, 0, 1, 0, 1, 0, 1, ' '
0.00012, 0.01762, 675
1, 138, 0, 675, 675, 675, 0, 0, 1.5, .51, 1.5, .51, 159, 0, 0, 0, 0
1, 345
58, 57, 0, '2', 1, 1, 1, 0, 0, 2, ' ', 1, 1, 1, 0, 1, 0, 1, 0, 1, ' '
0.00012, 0.01762, 675
1, 138, 0, 675, 675, 675, 0, 0, 1.5, .51, 1.5, .51, 159, 0, 0, 0, 0
1, 345
63, 62, 0, '1', 1, 1, 1, 0, 0, 2, ' ', 1, 1, 1, 0, 1, 0, 1, 0, 1, ' '
0.0032, 0.16353, 70
1, 13.8, 0, 70, 70, 70, 0, 0, 1.5, .51, 1.5, .51, 159, 0, 0, 0, 0
1, 138
66, 65, 0, '1', 1, 1, 1, 0, 0, 2, ' ', 1, 1, 1, 0, 1, 0, 1, 0, 1, ' '
0.000807929, 0.03088, 405
1, 138, 0, 405, 405, 405, 0, 0, 1.5, .51, 1.5, .51, 159, 0, 0, 0, 0
1, 345
71, 70, 0, '1', 1, 1, 1, 0, 0, 2, ' ', 1, 1, 1, 0, 1, 0, 1, 0, 1, ' '
0.00103, 0.04472, 133
1, 13.8, 0, 133, 133, 133, 0, 0, 1.5, .51, 1.5, .51, 159, 0, 0, 0, 0
1, 138
72, 70, 0, '1', 1, 1, 1, 0, 0, 2, ' ', 1, 1, 1, 0, 1, 0, 1, 0, 1, ' '
0.00292, 0.14481, 60
1, 13.8, 0, 60, 60, 60, 0, 0, 1.5, .51, 1.5, .51, 159, 0, 0, 0, 0
1, 138
73, 70, 0, '1', 1, 1, 1, 0, 0, 2, ' ', 1, 1, 1, 0, 1, 0, 1, 0, 1, ' '
0.0126963, 0.27303, 49
...